MODEL 1
REMARK VINA RESULT:    -7.075      0.000      0.000
REMARK INTER + INTRA:         -12.496
REMARK INTER:                 -11.004
REMARK INTRA:                  -1.492
REMARK UNBOUND:                -1.492
REMARK  Name = /home/prospero/dock/8WCC/capsaicin/capsaicin.pdb
REMARK  13 active torsions:
REMARK  status: ('A' for Active; 'I' for Inactive)
REMARK    1  A    between atoms: C1_1  and  C2_2
REMARK    2  A    between atoms: C2_2  and  C3_3
REMARK    3  A    between atoms: C2_2  and  C4_4
REMARK    4  A    between atoms: C5_5  and  C6_6
REMARK    5  A    between atoms: C6_6  and  C7_7
REMARK    6  A    between atoms: C7_7  and  C8_8
REMARK    7  A    between atoms: C8_8  and  C9_9
REMARK    8  A    between atoms: C9_9  and  C10_10
REMARK    9  A    between atoms: N1_12  and  C11_13
REMARK   10  A    between atoms: C11_13  and  C12_14
REMARK   11  A    between atoms: C14_16  and  O3_21
REMARK   12  A    between atoms: C15_17  and  O2_20
REMARK   13  A    between atoms: O3_21  and  C18_22
REMARK                            x       y       z     vdW  Elec       q    Type
REMARK                         _______ _______ _______ _____ _____    ______ ____
ROOT
ATOM      1  C10 UNL     1     124.230 114.008  81.244  0.00  0.00    +0.000 C 
ATOM      2  O1  UNL     1     124.885 113.305  80.428  0.00  0.00    +0.000 OA
ATOM      3  N1  UNL     1     123.028 113.500  81.840  0.00  0.00    +0.000 N 
ATOM      4  H18 UNL     1     122.482 114.117  82.484  0.00  0.00    +0.000 HD
ENDROOT
BRANCH   1   5
ATOM      5  C9  UNL     1     124.682 115.403  81.549  0.00  0.00    +0.000 C 
BRANCH   5   6
ATOM      6  C8  UNL     1     123.581 116.406  81.183  0.00  0.00    +0.000 C 
BRANCH   6   7
ATOM      7  C7  UNL     1     123.039 117.174  82.403  0.00  0.00    +0.000 C 
BRANCH   7   8
ATOM      8  C6  UNL     1     123.625 116.717  83.750  0.00  0.00    +0.000 C 
BRANCH   8  10
ATOM      9  C4  UNL     1     121.421 115.599  84.048  0.00  0.00    +0.000 C 
ATOM     10  C5  UNL     1     122.656 115.854  84.516  0.00  0.00    +0.000 C 
BRANCH   9  12
ATOM     11  C1  UNL     1     119.839 115.668  85.997  0.00  0.00    +0.000 C 
ATOM     12  C2  UNL     1     120.391 114.825  84.841  0.00  0.00    +0.000 C 
ATOM     13  C3  UNL     1     120.952 113.489  85.344  0.00  0.00    +0.000 C 
ENDBRANCH   9  12
ENDBRANCH   8  10
ENDBRANCH   7   8
ENDBRANCH   6   7
ENDBRANCH   5   6
ENDBRANCH   1   5
BRANCH   3  14
ATOM     14  C11 UNL     1     122.510 112.165  81.553  0.00  0.00    +0.000 C 
BRANCH  14  15
ATOM     15  C12 UNL     1     121.004 112.178  81.531  0.00  0.00    +0.000 A 
ATOM     16  C13 UNL     1     120.282 111.415  82.461  0.00  0.00    +0.000 A 
ATOM     17  C14 UNL     1     118.872 111.408  82.441  0.00  0.00    +0.000 A 
ATOM     18  C15 UNL     1     118.196 112.175  81.481  0.00  0.00    +0.000 A 
ATOM     19  C16 UNL     1     118.917 112.936  80.552  0.00  0.00    +0.000 A 
ATOM     20  C17 UNL     1     120.313 112.937  80.574  0.00  0.00    +0.000 A 
BRANCH  18  21
ATOM     21  O2  UNL     1     116.804 112.174  81.455  0.00  0.00    +0.000 OA
ATOM     22  H24 UNL     1     116.290 112.069  80.589  0.00  0.00    +0.000 HD
ENDBRANCH  18  21
BRANCH  17  23
ATOM     23  O3  UNL     1     118.115 110.654  83.351  0.00  0.00    +0.000 OA
ATOM     24  C18 UNL     1     117.790 111.074  84.671  0.00  0.00    +0.000 C 
ENDBRANCH  17  23
ENDBRANCH  14  15
ENDBRANCH   3  14
TORSDOF 10
ENDMDL
MODEL 2
REMARK VINA RESULT:    -6.856      2.286      4.812
REMARK INTER + INTRA:         -12.156
REMARK INTER:                 -11.418
REMARK INTRA:                  -0.737
REMARK UNBOUND:                -1.492
REMARK  Name = /home/prospero/dock/8WCC/capsaicin/capsaicin.pdb
REMARK  13 active torsions:
REMARK  status: ('A' for Active; 'I' for Inactive)
REMARK    1  A    between atoms: C1_1  and  C2_2
REMARK    2  A    between atoms: C2_2  and  C3_3
REMARK    3  A    between atoms: C2_2  and  C4_4
REMARK    4  A    between atoms: C5_5  and  C6_6
REMARK    5  A    between atoms: C6_6  and  C7_7
REMARK    6  A    between atoms: C7_7  and  C8_8
REMARK    7  A    between atoms: C8_8  and  C9_9
REMARK    8  A    between atoms: C9_9  and  C10_10
REMARK    9  A    between atoms: N1_12  and  C11_13
REMARK   10  A    between atoms: C11_13  and  C12_14
REMARK   11  A    between atoms: C14_16  and  O3_21
REMARK   12  A    between atoms: C15_17  and  O2_20
REMARK   13  A    between atoms: O3_21  and  C18_22
REMARK                            x       y       z     vdW  Elec       q    Type
REMARK                         _______ _______ _______ _____ _____    ______ ____
ROOT
ATOM      1  C10 UNL     1     123.316 116.316  84.037  0.00  0.00    +0.000 C 
ATOM      2  O1  UNL     1     124.221 116.207  84.907  0.00  0.00    +0.000 OA
ATOM      3  N1  UNL     1     122.242 115.366  83.982  0.00  0.00    +0.000 N 
ATOM      4  H18 UNL     1     121.524 115.456  83.228  0.00  0.00    +0.000 HD
ENDROOT
BRANCH   1   5
ATOM      5  C9  UNL     1     123.393 117.414  83.021  0.00  0.00    +0.000 C 
BRANCH   5   6
ATOM      6  C8  UNL     1     123.488 116.820  81.610  0.00  0.00    +0.000 C 
BRANCH   6   7
ATOM      7  C7  UNL     1     124.472 115.637  81.523  0.00  0.00    +0.000 C 
BRANCH   7   8
ATOM      8  C6  UNL     1     123.897 114.385  80.839  0.00  0.00    +0.000 C 
BRANCH   8  10
ATOM      9  C4  UNL     1     126.217 113.489  80.726  0.00  0.00    +0.000 C 
ATOM     10  C5  UNL     1     124.895 113.257  80.812  0.00  0.00    +0.000 C 
BRANCH   9  12
ATOM     11  C1  UNL     1     126.668 111.049  81.104  0.00  0.00    +0.000 C 
ATOM     12  C2  UNL     1     127.235 112.379  80.592  0.00  0.00    +0.000 C 
ATOM     13  C3  UNL     1     128.551 112.731  81.295  0.00  0.00    +0.000 C 
ENDBRANCH   9  12
ENDBRANCH   8  10
ENDBRANCH   7   8
ENDBRANCH   6   7
ENDBRANCH   5   6
ENDBRANCH   1   5
BRANCH   3  14
ATOM     14  C11 UNL     1     122.131 114.249  84.917  0.00  0.00    +0.000 C 
BRANCH  14  15
ATOM     15  C12 UNL     1     120.807 113.552  84.748  0.00  0.00    +0.000 A 
ATOM     16  C13 UNL     1     120.377 113.162  83.469  0.00  0.00    +0.000 A 
ATOM     17  C14 UNL     1     119.133 112.522  83.297  0.00  0.00    +0.000 A 
ATOM     18  C15 UNL     1     118.327 112.276  84.418  0.00  0.00    +0.000 A 
ATOM     19  C16 UNL     1     118.755 112.665  85.693  0.00  0.00    +0.000 A 
ATOM     20  C17 UNL     1     119.986 113.302  85.859  0.00  0.00    +0.000 A 
BRANCH  18  21
ATOM     21  O2  UNL     1     117.097 111.642  84.255  0.00  0.00    +0.000 OA
ATOM     22  H24 UNL     1     116.347 111.762  84.926  0.00  0.00    +0.000 HD
ENDBRANCH  18  21
BRANCH  17  23
ATOM     23  O3  UNL     1     118.666 112.122  82.035  0.00  0.00    +0.000 OA
ATOM     24  C18 UNL     1     118.807 112.888  80.844  0.00  0.00    +0.000 C 
ENDBRANCH  17  23
ENDBRANCH  14  15
ENDBRANCH   3  14
TORSDOF 10
ENDMDL
MODEL 3
REMARK VINA RESULT:    -6.662      2.841      6.444
REMARK INTER + INTRA:         -11.854
REMARK INTER:                 -10.812
REMARK INTRA:                  -1.041
REMARK UNBOUND:                -1.492
REMARK  Name = /home/prospero/dock/8WCC/capsaicin/capsaicin.pdb
REMARK  13 active torsions:
REMARK  status: ('A' for Active; 'I' for Inactive)
REMARK    1  A    between atoms: C1_1  and  C2_2
REMARK    2  A    between atoms: C2_2  and  C3_3
REMARK    3  A    between atoms: C2_2  and  C4_4
REMARK    4  A    between atoms: C5_5  and  C6_6
REMARK    5  A    between atoms: C6_6  and  C7_7
REMARK    6  A    between atoms: C7_7  and  C8_8
REMARK    7  A    between atoms: C8_8  and  C9_9
REMARK    8  A    between atoms: C9_9  and  C10_10
REMARK    9  A    between atoms: N1_12  and  C11_13
REMARK   10  A    between atoms: C11_13  and  C12_14
REMARK   11  A    between atoms: C14_16  and  O3_21
REMARK   12  A    between atoms: C15_17  and  O2_20
REMARK   13  A    between atoms: O3_21  and  C18_22
REMARK                            x       y       z     vdW  Elec       q    Type
REMARK                         _______ _______ _______ _____ _____    ______ ____
ROOT
ATOM      1  C10 UNL     1     123.247 115.520  82.337  0.00  0.00    +0.000 C 
ATOM      2  O1  UNL     1     123.825 116.352  81.588  0.00  0.00    +0.000 OA
ATOM      3  N1  UNL     1     123.072 114.160  81.916  0.00  0.00    +0.000 N 
ATOM      4  H18 UNL     1     122.556 113.498  82.539  0.00  0.00    +0.000 HD
ENDROOT
BRANCH   1   5
ATOM      5  C9  UNL     1     122.688 115.970  83.652  0.00  0.00    +0.000 C 
BRANCH   5   6
ATOM      6  C8  UNL     1     121.176 115.724  83.695  0.00  0.00    +0.000 C 
BRANCH   6   7
ATOM      7  C7  UNL     1     120.651 115.461  85.120  0.00  0.00    +0.000 C 
BRANCH   7   8
ATOM      8  C6  UNL     1     120.348 113.984  85.421  0.00  0.00    +0.000 C 
BRANCH   8  10
ATOM      9  C4  UNL     1     119.305 112.513  83.704  0.00  0.00    +0.000 C 
ATOM     10  C5  UNL     1     120.399 113.139  84.175  0.00  0.00    +0.000 C 
BRANCH   9  12
ATOM     11  C1  UNL     1     120.766 111.474  81.948  0.00  0.00    +0.000 C 
ATOM     12  C2  UNL     1     119.347 111.576  82.519  0.00  0.00    +0.000 C 
ATOM     13  C3  UNL     1     118.340 111.987  81.437  0.00  0.00    +0.000 C 
ENDBRANCH   9  12
ENDBRANCH   8  10
ENDBRANCH   7   8
ENDBRANCH   6   7
ENDBRANCH   5   6
ENDBRANCH   1   5
BRANCH   3  14
ATOM     14  C11 UNL     1     123.556 113.666  80.629  0.00  0.00    +0.000 C 
BRANCH  14  15
ATOM     15  C12 UNL     1     124.911 113.028  80.786  0.00  0.00    +0.000 A 
ATOM     16  C13 UNL     1     126.073 113.784  80.567  0.00  0.00    +0.000 A 
ATOM     17  C14 UNL     1     127.346 113.194  80.697  0.00  0.00    +0.000 A 
ATOM     18  C15 UNL     1     127.442 111.840  81.050  0.00  0.00    +0.000 A 
ATOM     19  C16 UNL     1     126.283 111.085  81.268  0.00  0.00    +0.000 A 
ATOM     20  C17 UNL     1     125.024 111.673  81.135  0.00  0.00    +0.000 A 
BRANCH  18  21
ATOM     21  O2  UNL     1     128.697 111.250  81.182  0.00  0.00    +0.000 OA
ATOM     22  H24 UNL     1     128.900 110.342  80.781  0.00  0.00    +0.000 HD
ENDBRANCH  18  21
BRANCH  17  23
ATOM     23  O3  UNL     1     128.531 113.915  80.481  0.00  0.00    +0.000 OA
ATOM     24  C18 UNL     1     128.587 115.226  79.928  0.00  0.00    +0.000 C 
ENDBRANCH  17  23
ENDBRANCH  14  15
ENDBRANCH   3  14
TORSDOF 10
ENDMDL
MODEL 4
REMARK VINA RESULT:    -6.645      2.214      4.348
REMARK INTER + INTRA:         -11.828
REMARK INTER:                 -10.790
REMARK INTRA:                  -1.038
REMARK UNBOUND:                -1.492
REMARK  Name = /home/prospero/dock/8WCC/capsaicin/capsaicin.pdb
REMARK  13 active torsions:
REMARK  status: ('A' for Active; 'I' for Inactive)
REMARK    1  A    between atoms: C1_1  and  C2_2
REMARK    2  A    between atoms: C2_2  and  C3_3
REMARK    3  A    between atoms: C2_2  and  C4_4
REMARK    4  A    between atoms: C5_5  and  C6_6
REMARK    5  A    between atoms: C6_6  and  C7_7
REMARK    6  A    between atoms: C7_7  and  C8_8
REMARK    7  A    between atoms: C8_8  and  C9_9
REMARK    8  A    between atoms: C9_9  and  C10_10
REMARK    9  A    between atoms: N1_12  and  C11_13
REMARK   10  A    between atoms: C11_13  and  C12_14
REMARK   11  A    between atoms: C14_16  and  O3_21
REMARK   12  A    between atoms: C15_17  and  O2_20
REMARK   13  A    between atoms: O3_21  and  C18_22
REMARK                            x       y       z     vdW  Elec       q    Type
REMARK                         _______ _______ _______ _____ _____    ______ ____
ROOT
ATOM      1  C10 UNL     1     123.295 116.297  84.078  0.00  0.00    +0.000 C 
ATOM      2  O1  UNL     1     124.087 115.820  84.934  0.00  0.00    +0.000 OA
ATOM      3  N1  UNL     1     122.013 115.692  83.856  0.00  0.00    +0.000 N 
ATOM      4  H18 UNL     1     121.389 116.083  83.114  0.00  0.00    +0.000 HD
ENDROOT
BRANCH   1   5
ATOM      5  C9  UNL     1     123.719 117.470  83.248  0.00  0.00    +0.000 C 
BRANCH   5   6
ATOM      6  C8  UNL     1     123.753 117.081  81.765  0.00  0.00    +0.000 C 
BRANCH   6   7
ATOM      7  C7  UNL     1     124.657 115.865  81.484  0.00  0.00    +0.000 C 
BRANCH   7   8
ATOM      8  C6  UNL     1     123.923 114.660  80.872  0.00  0.00    +0.000 C 
BRANCH   8  10
ATOM      9  C4  UNL     1     126.160 113.573  80.770  0.00  0.00    +0.000 C 
ATOM     10  C5  UNL     1     124.820 113.454  80.770  0.00  0.00    +0.000 C 
BRANCH   9  12
ATOM     11  C1  UNL     1     126.441 111.096  81.065  0.00  0.00    +0.000 C 
ATOM     12  C2  UNL     1     127.085 112.394  80.564  0.00  0.00    +0.000 C 
ATOM     13  C3  UNL     1     128.452 112.626  81.220  0.00  0.00    +0.000 C 
ENDBRANCH   9  12
ENDBRANCH   8  10
ENDBRANCH   7   8
ENDBRANCH   6   7
ENDBRANCH   5   6
ENDBRANCH   1   5
BRANCH   3  14
ATOM     14  C11 UNL     1     121.555 114.522  84.601  0.00  0.00    +0.000 C 
BRANCH  14  15
ATOM     15  C12 UNL     1     120.628 113.689  83.755  0.00  0.00    +0.000 A 
ATOM     16  C13 UNL     1     119.502 113.084  84.335  0.00  0.00    +0.000 A 
ATOM     17  C14 UNL     1     118.636 112.290  83.556  0.00  0.00    +0.000 A 
ATOM     18  C15 UNL     1     118.909 112.112  82.192  0.00  0.00    +0.000 A 
ATOM     19  C16 UNL     1     120.033 112.715  81.614  0.00  0.00    +0.000 A 
ATOM     20  C17 UNL     1     120.890 113.497  82.390  0.00  0.00    +0.000 A 
BRANCH  18  21
ATOM     21  O2  UNL     1     118.057 111.330  81.416  0.00  0.00    +0.000 OA
ATOM     22  H24 UNL     1     117.880 111.546  80.442  0.00  0.00    +0.000 HD
ENDBRANCH  18  21
BRANCH  17  23
ATOM     23  O3  UNL     1     117.503 111.665  84.100  0.00  0.00    +0.000 OA
ATOM     24  C18 UNL     1     117.513 110.388  84.730  0.00  0.00    +0.000 C 
ENDBRANCH  17  23
ENDBRANCH  14  15
ENDBRANCH   3  14
TORSDOF 10
ENDMDL
MODEL 5
REMARK VINA RESULT:    -6.585      2.216      6.742
REMARK INTER + INTRA:         -11.735
REMARK INTER:                 -11.291
REMARK INTRA:                  -0.444
REMARK UNBOUND:                -1.492
REMARK  Name = /home/prospero/dock/8WCC/capsaicin/capsaicin.pdb
REMARK  13 active torsions:
REMARK  status: ('A' for Active; 'I' for Inactive)
REMARK    1  A    between atoms: C1_1  and  C2_2
REMARK    2  A    between atoms: C2_2  and  C3_3
REMARK    3  A    between atoms: C2_2  and  C4_4
REMARK    4  A    between atoms: C5_5  and  C6_6
REMARK    5  A    between atoms: C6_6  and  C7_7
REMARK    6  A    between atoms: C7_7  and  C8_8
REMARK    7  A    between atoms: C8_8  and  C9_9
REMARK    8  A    between atoms: C9_9  and  C10_10
REMARK    9  A    between atoms: N1_12  and  C11_13
REMARK   10  A    between atoms: C11_13  and  C12_14
REMARK   11  A    between atoms: C14_16  and  O3_21
REMARK   12  A    between atoms: C15_17  and  O2_20
REMARK   13  A    between atoms: O3_21  and  C18_22
REMARK                            x       y       z     vdW  Elec       q    Type
REMARK                         _______ _______ _______ _____ _____    ______ ____
ROOT
ATOM      1  C10 UNL     1     119.554 113.656  85.885  0.00  0.00    +0.000 C 
ATOM      2  O1  UNL     1     119.105 114.436  86.767  0.00  0.00    +0.000 OA
ATOM      3  N1  UNL     1     120.403 114.153  84.840  0.00  0.00    +0.000 N 
ATOM      4  H18 UNL     1     120.732 113.494  84.098  0.00  0.00    +0.000 HD
ENDROOT
BRANCH   1   5
ATOM      5  C9  UNL     1     119.153 112.213  85.898  0.00  0.00    +0.000 C 
BRANCH   5   6
ATOM      6  C8  UNL     1     118.000 111.978  84.915  0.00  0.00    +0.000 C 
BRANCH   6   7
ATOM      7  C7  UNL     1     117.717 110.484  84.669  0.00  0.00    +0.000 C 
BRANCH   7   8
ATOM      8  C6  UNL     1     118.457 109.890  83.459  0.00  0.00    +0.000 C 
BRANCH   8  10
ATOM      9  C4  UNL     1     118.519 111.923  82.023  0.00  0.00    +0.000 C 
ATOM     10  C5  UNL     1     119.183 110.950  82.674  0.00  0.00    +0.000 C 
BRANCH   9  12
ATOM     11  C1  UNL     1     118.373 113.248  79.897  0.00  0.00    +0.000 C 
ATOM     12  C2  UNL     1     119.212 112.938  81.143  0.00  0.00    +0.000 C 
ATOM     13  C3  UNL     1     120.627 112.485  80.763  0.00  0.00    +0.000 C 
ENDBRANCH   9  12
ENDBRANCH   8  10
ENDBRANCH   7   8
ENDBRANCH   6   7
ENDBRANCH   5   6
ENDBRANCH   1   5
BRANCH   3  14
ATOM     14  C11 UNL     1     120.797 115.556  84.747  0.00  0.00    +0.000 C 
BRANCH  14  15
ATOM     15  C12 UNL     1     122.055 115.695  83.929  0.00  0.00    +0.000 A 
ATOM     16  C13 UNL     1     122.215 114.943  82.754  0.00  0.00    +0.000 A 
ATOM     17  C14 UNL     1     123.393 115.054  81.989  0.00  0.00    +0.000 A 
ATOM     18  C15 UNL     1     124.407 115.926  82.412  0.00  0.00    +0.000 A 
ATOM     19  C16 UNL     1     124.247 116.676  83.585  0.00  0.00    +0.000 A 
ATOM     20  C17 UNL     1     123.080 116.560  84.341  0.00  0.00    +0.000 A 
BRANCH  18  21
ATOM     21  O2  UNL     1     125.574 116.042  81.661  0.00  0.00    +0.000 OA
ATOM     22  H24 UNL     1     126.176 116.853  81.738  0.00  0.00    +0.000 HD
ENDBRANCH  18  21
BRANCH  17  23
ATOM     23  O3  UNL     1     123.593 114.316  80.812  0.00  0.00    +0.000 OA
ATOM     24  C18 UNL     1     124.307 113.086  80.744  0.00  0.00    +0.000 C 
ENDBRANCH  17  23
ENDBRANCH  14  15
ENDBRANCH   3  14
TORSDOF 10
ENDMDL
MODEL 6
REMARK VINA RESULT:    -6.206      1.807      3.995
REMARK INTER + INTRA:         -11.145
REMARK INTER:                  -9.918
REMARK INTRA:                  -1.228
REMARK UNBOUND:                -1.492
REMARK  Name = /home/prospero/dock/8WCC/capsaicin/capsaicin.pdb
REMARK  13 active torsions:
REMARK  status: ('A' for Active; 'I' for Inactive)
REMARK    1  A    between atoms: C1_1  and  C2_2
REMARK    2  A    between atoms: C2_2  and  C3_3
REMARK    3  A    between atoms: C2_2  and  C4_4
REMARK    4  A    between atoms: C5_5  and  C6_6
REMARK    5  A    between atoms: C6_6  and  C7_7
REMARK    6  A    between atoms: C7_7  and  C8_8
REMARK    7  A    between atoms: C8_8  and  C9_9
REMARK    8  A    between atoms: C9_9  and  C10_10
REMARK    9  A    between atoms: N1_12  and  C11_13
REMARK   10  A    between atoms: C11_13  and  C12_14
REMARK   11  A    between atoms: C14_16  and  O3_21
REMARK   12  A    between atoms: C15_17  and  O2_20
REMARK   13  A    between atoms: O3_21  and  C18_22
REMARK                            x       y       z     vdW  Elec       q    Type
REMARK                         _______ _______ _______ _____ _____    ______ ____
ROOT
ATOM      1  C10 UNL     1     123.209 116.197  84.072  0.00  0.00    +0.000 C 
ATOM      2  O1  UNL     1     124.166 116.034  84.877  0.00  0.00    +0.000 OA
ATOM      3  N1  UNL     1     122.145 115.237  84.005  0.00  0.00    +0.000 N 
ATOM      4  H18 UNL     1     121.382 115.375  83.303  0.00  0.00    +0.000 HD
ENDROOT
BRANCH   1   5
ATOM      5  C9  UNL     1     123.216 117.370  83.141  0.00  0.00    +0.000 C 
BRANCH   5   6
ATOM      6  C8  UNL     1     123.656 116.930  81.740  0.00  0.00    +0.000 C 
BRANCH   6   7
ATOM      7  C7  UNL     1     125.068 116.314  81.722  0.00  0.00    +0.000 C 
BRANCH   7   8
ATOM      8  C6  UNL     1     125.126 114.879  81.170  0.00  0.00    +0.000 C 
BRANCH   8  10
ATOM      9  C4  UNL     1     123.339 113.146  81.180  0.00  0.00    +0.000 C 
ATOM     10  C5  UNL     1     123.758 114.367  80.802  0.00  0.00    +0.000 C 
BRANCH   9  12
ATOM     11  C1  UNL     1     121.916 111.080  81.113  0.00  0.00    +0.000 C 
ATOM     12  C2  UNL     1     122.015 112.564  80.739  0.00  0.00    +0.000 C 
ATOM     13  C3  UNL     1     121.775 112.778  79.239  0.00  0.00    +0.000 C 
ENDBRANCH   9  12
ENDBRANCH   8  10
ENDBRANCH   7   8
ENDBRANCH   6   7
ENDBRANCH   5   6
ENDBRANCH   1   5
BRANCH   3  14
ATOM     14  C11 UNL     1     122.100 114.050  84.854  0.00  0.00    +0.000 C 
BRANCH  14  15
ATOM     15  C12 UNL     1     120.749 113.389  84.763  0.00  0.00    +0.000 A 
ATOM     16  C13 UNL     1     120.270 112.939  83.523  0.00  0.00    +0.000 A 
ATOM     17  C14 UNL     1     119.002 112.333  83.423  0.00  0.00    +0.000 A 
ATOM     18  C15 UNL     1     118.221 112.180  84.578  0.00  0.00    +0.000 A 
ATOM     19  C16 UNL     1     118.699 112.630  85.816  0.00  0.00    +0.000 A 
ATOM     20  C17 UNL     1     119.955 113.234  85.909  0.00  0.00    +0.000 A 
BRANCH  18  21
ATOM     21  O2  UNL     1     116.968 111.581  84.488  0.00  0.00    +0.000 OA
ATOM     22  H24 UNL     1     116.500 111.206  85.304  0.00  0.00    +0.000 HD
ENDBRANCH  18  21
BRANCH  17  23
ATOM     23  O3  UNL     1     118.486 111.875  82.201  0.00  0.00    +0.000 OA
ATOM     24  C18 UNL     1     118.455 112.641  81.002  0.00  0.00    +0.000 C 
ENDBRANCH  17  23
ENDBRANCH  14  15
ENDBRANCH   3  14
TORSDOF 10
ENDMDL
MODEL 7
REMARK VINA RESULT:    -6.104      1.709      4.761
REMARK INTER + INTRA:         -10.986
REMARK INTER:                  -9.929
REMARK INTRA:                  -1.057
REMARK UNBOUND:                -1.492
REMARK  Name = /home/prospero/dock/8WCC/capsaicin/capsaicin.pdb
REMARK  13 active torsions:
REMARK  status: ('A' for Active; 'I' for Inactive)
REMARK    1  A    between atoms: C1_1  and  C2_2
REMARK    2  A    between atoms: C2_2  and  C3_3
REMARK    3  A    between atoms: C2_2  and  C4_4
REMARK    4  A    between atoms: C5_5  and  C6_6
REMARK    5  A    between atoms: C6_6  and  C7_7
REMARK    6  A    between atoms: C7_7  and  C8_8
REMARK    7  A    between atoms: C8_8  and  C9_9
REMARK    8  A    between atoms: C9_9  and  C10_10
REMARK    9  A    between atoms: N1_12  and  C11_13
REMARK   10  A    between atoms: C11_13  and  C12_14
REMARK   11  A    between atoms: C14_16  and  O3_21
REMARK   12  A    between atoms: C15_17  and  O2_20
REMARK   13  A    between atoms: O3_21  and  C18_22
REMARK                            x       y       z     vdW  Elec       q    Type
REMARK                         _______ _______ _______ _____ _____    ______ ____
ROOT
ATOM      1  C10 UNL     1     123.538 114.823  81.709  0.00  0.00    +0.000 C 
ATOM      2  O1  UNL     1     124.464 115.635  81.977  0.00  0.00    +0.000 OA
ATOM      3  N1  UNL     1     122.297 114.873  82.428  0.00  0.00    +0.000 N 
ATOM      4  H18 UNL     1     121.559 114.165  82.214  0.00  0.00    +0.000 HD
ENDROOT
BRANCH   1   5
ATOM      5  C9  UNL     1     123.758 113.764  80.673  0.00  0.00    +0.000 C 
BRANCH   5   6
ATOM      6  C8  UNL     1     122.477 112.944  80.478  0.00  0.00    +0.000 C 
BRANCH   6   7
ATOM      7  C7  UNL     1     122.446 111.668  81.341  0.00  0.00    +0.000 C 
BRANCH   7   8
ATOM      8  C6  UNL     1     121.119 111.440  82.084  0.00  0.00    +0.000 C 
BRANCH   8  10
ATOM      9  C4  UNL     1     118.733 111.719  81.431  0.00  0.00    +0.000 C 
ATOM     10  C5  UNL     1     119.986 112.207  81.454  0.00  0.00    +0.000 C 
BRANCH   9  12
ATOM     11  C1  UNL     1     116.826 111.436  79.823  0.00  0.00    +0.000 C 
ATOM     12  C2  UNL     1     117.598 112.416  80.715  0.00  0.00    +0.000 C 
ATOM     13  C3  UNL     1     118.094 113.626  79.913  0.00  0.00    +0.000 C 
ENDBRANCH   9  12
ENDBRANCH   8  10
ENDBRANCH   7   8
ENDBRANCH   6   7
ENDBRANCH   5   6
ENDBRANCH   1   5
BRANCH   3  14
ATOM     14  C11 UNL     1     122.035 115.853  83.478  0.00  0.00    +0.000 C 
BRANCH  14  15
ATOM     15  C12 UNL     1     121.028 115.314  84.460  0.00  0.00    +0.000 A 
ATOM     16  C13 UNL     1     120.619 113.973  84.383  0.00  0.00    +0.000 A 
ATOM     17  C14 UNL     1     119.667 113.462  85.287  0.00  0.00    +0.000 A 
ATOM     18  C15 UNL     1     119.130 114.307  86.269  0.00  0.00    +0.000 A 
ATOM     19  C16 UNL     1     119.537 115.645  86.346  0.00  0.00    +0.000 A 
ATOM     20  C17 UNL     1     120.478 116.148  85.446  0.00  0.00    +0.000 A 
BRANCH  18  21
ATOM     21  O2  UNL     1     118.189 113.808  87.167  0.00  0.00    +0.000 OA
ATOM     22  H24 UNL     1     117.484 113.141  86.879  0.00  0.00    +0.000 HD
ENDBRANCH  18  21
BRANCH  17  23
ATOM     23  O3  UNL     1     119.230 112.129  85.238  0.00  0.00    +0.000 OA
ATOM     24  C18 UNL     1     117.990 111.707  84.680  0.00  0.00    +0.000 C 
ENDBRANCH  17  23
ENDBRANCH  14  15
ENDBRANCH   3  14
TORSDOF 10
ENDMDL
MODEL 8
REMARK VINA RESULT:    -5.844      1.523      2.474
REMARK INTER + INTRA:         -10.581
REMARK INTER:                  -9.666
REMARK INTRA:                  -0.916
REMARK UNBOUND:                -1.492
REMARK  Name = /home/prospero/dock/8WCC/capsaicin/capsaicin.pdb
REMARK  13 active torsions:
REMARK  status: ('A' for Active; 'I' for Inactive)
REMARK    1  A    between atoms: C1_1  and  C2_2
REMARK    2  A    between atoms: C2_2  and  C3_3
REMARK    3  A    between atoms: C2_2  and  C4_4
REMARK    4  A    between atoms: C5_5  and  C6_6
REMARK    5  A    between atoms: C6_6  and  C7_7
REMARK    6  A    between atoms: C7_7  and  C8_8
REMARK    7  A    between atoms: C8_8  and  C9_9
REMARK    8  A    between atoms: C9_9  and  C10_10
REMARK    9  A    between atoms: N1_12  and  C11_13
REMARK   10  A    between atoms: C11_13  and  C12_14
REMARK   11  A    between atoms: C14_16  and  O3_21
REMARK   12  A    between atoms: C15_17  and  O2_20
REMARK   13  A    between atoms: O3_21  and  C18_22
REMARK                            x       y       z     vdW  Elec       q    Type
REMARK                         _______ _______ _______ _____ _____    ______ ____
ROOT
ATOM      1  C10 UNL     1     122.800 113.191  80.650  0.00  0.00    +0.000 C 
ATOM      2  O1  UNL     1     122.752 112.943  79.415  0.00  0.00    +0.000 OA
ATOM      3  N1  UNL     1     121.716 112.812  81.510  0.00  0.00    +0.000 N 
ATOM      4  H18 UNL     1     121.762 113.063  82.524  0.00  0.00    +0.000 HD
ENDROOT
BRANCH   1   5
ATOM      5  C9  UNL     1     123.972 113.936  81.211  0.00  0.00    +0.000 C 
BRANCH   5   6
ATOM      6  C8  UNL     1     123.704 115.445  81.175  0.00  0.00    +0.000 C 
BRANCH   6   7
ATOM      7  C7  UNL     1     124.859 116.273  81.768  0.00  0.00    +0.000 C 
BRANCH   7   8
ATOM      8  C6  UNL     1     124.420 117.319  82.807  0.00  0.00    +0.000 C 
BRANCH   8  10
ATOM      9  C4  UNL     1     123.238 115.690  84.272  0.00  0.00    +0.000 C 
ATOM     10  C5  UNL     1     123.225 116.853  83.597  0.00  0.00    +0.000 C 
BRANCH   9  12
ATOM     11  C1  UNL     1     122.023 113.612  84.984  0.00  0.00    +0.000 C 
ATOM     12  C2  UNL     1     122.021 115.145  84.986  0.00  0.00    +0.000 C 
ATOM     13  C3  UNL     1     120.721 115.701  84.391  0.00  0.00    +0.000 C 
ENDBRANCH   9  12
ENDBRANCH   8  10
ENDBRANCH   7   8
ENDBRANCH   6   7
ENDBRANCH   5   6
ENDBRANCH   1   5
BRANCH   3  14
ATOM     14  C11 UNL     1     120.526 112.122  81.019  0.00  0.00    +0.000 C 
BRANCH  14  15
ATOM     15  C12 UNL     1     119.649 111.703  82.170  0.00  0.00    +0.000 A 
ATOM     16  C13 UNL     1     119.247 112.648  83.127  0.00  0.00    +0.000 A 
ATOM     17  C14 UNL     1     118.439 112.266  84.216  0.00  0.00    +0.000 A 
ATOM     18  C15 UNL     1     118.037 110.927  84.335  0.00  0.00    +0.000 A 
ATOM     19  C16 UNL     1     118.438 109.984  83.380  0.00  0.00    +0.000 A 
ATOM     20  C17 UNL     1     119.242 110.367  82.305  0.00  0.00    +0.000 A 
BRANCH  18  21
ATOM     21  O2  UNL     1     117.237 110.541  85.408  0.00  0.00    +0.000 OA
ATOM     22  H24 UNL     1     117.189 111.091  86.257  0.00  0.00    +0.000 HD
ENDBRANCH  18  21
BRANCH  17  23
ATOM     23  O3  UNL     1     118.021 113.180  85.195  0.00  0.00    +0.000 OA
ATOM     24  C18 UNL     1     118.779 113.527  86.349  0.00  0.00    +0.000 C 
ENDBRANCH  17  23
ENDBRANCH  14  15
ENDBRANCH   3  14
TORSDOF 10
ENDMDL
MODEL 9
REMARK VINA RESULT:    -5.740      1.709      6.134
REMARK INTER + INTRA:         -10.420
REMARK INTER:                  -9.169
REMARK INTRA:                  -1.251
REMARK UNBOUND:                -1.492
REMARK  Name = /home/prospero/dock/8WCC/capsaicin/capsaicin.pdb
REMARK  13 active torsions:
REMARK  status: ('A' for Active; 'I' for Inactive)
REMARK    1  A    between atoms: C1_1  and  C2_2
REMARK    2  A    between atoms: C2_2  and  C3_3
REMARK    3  A    between atoms: C2_2  and  C4_4
REMARK    4  A    between atoms: C5_5  and  C6_6
REMARK    5  A    between atoms: C6_6  and  C7_7
REMARK    6  A    between atoms: C7_7  and  C8_8
REMARK    7  A    between atoms: C8_8  and  C9_9
REMARK    8  A    between atoms: C9_9  and  C10_10
REMARK    9  A    between atoms: N1_12  and  C11_13
REMARK   10  A    between atoms: C11_13  and  C12_14
REMARK   11  A    between atoms: C14_16  and  O3_21
REMARK   12  A    between atoms: C15_17  and  O2_20
REMARK   13  A    between atoms: O3_21  and  C18_22
REMARK                            x       y       z     vdW  Elec       q    Type
REMARK                         _______ _______ _______ _____ _____    ______ ____
ROOT
ATOM      1  C10 UNL     1     119.777 111.805  81.567  0.00  0.00    +0.000 C 
ATOM      2  O1  UNL     1     120.039 110.767  82.233  0.00  0.00    +0.000 OA
ATOM      3  N1  UNL     1     120.833 112.581  80.984  0.00  0.00    +0.000 N 
ATOM      4  H18 UNL     1     120.592 113.458  80.468  0.00  0.00    +0.000 HD
ENDROOT
BRANCH   1   5
ATOM      5  C9  UNL     1     118.356 112.260  81.433  0.00  0.00    +0.000 C 
BRANCH   5   6
ATOM      6  C8  UNL     1     117.447 111.424  82.342  0.00  0.00    +0.000 C 
BRANCH   6   7
ATOM      7  C7  UNL     1     117.227 112.068  83.725  0.00  0.00    +0.000 C 
BRANCH   7   8
ATOM      8  C6  UNL     1     117.905 111.320  84.886  0.00  0.00    +0.000 C 
BRANCH   8  10
ATOM      9  C4  UNL     1     119.412 113.296  85.025  0.00  0.00    +0.000 C 
ATOM     10  C5  UNL     1     118.909 112.188  85.598  0.00  0.00    +0.000 C 
BRANCH   9  12
ATOM     11  C1  UNL     1     120.236 115.626  85.464  0.00  0.00    +0.000 C 
ATOM     12  C2  UNL     1     120.497 114.129  85.671  0.00  0.00    +0.000 C 
ATOM     13  C3  UNL     1     121.890 113.732  85.167  0.00  0.00    +0.000 C 
ENDBRANCH   9  12
ENDBRANCH   8  10
ENDBRANCH   7   8
ENDBRANCH   6   7
ENDBRANCH   5   6
ENDBRANCH   1   5
BRANCH   3  14
ATOM     14  C11 UNL     1     122.241 112.216  81.112  0.00  0.00    +0.000 C 
BRANCH  14  15
ATOM     15  C12 UNL     1     123.086 113.446  81.320  0.00  0.00    +0.000 A 
ATOM     16  C13 UNL     1     124.433 113.447  80.925  0.00  0.00    +0.000 A 
ATOM     17  C14 UNL     1     125.237 114.587  81.128  0.00  0.00    +0.000 A 
ATOM     18  C15 UNL     1     124.677 115.724  81.729  0.00  0.00    +0.000 A 
ATOM     19  C16 UNL     1     123.333 115.722  82.124  0.00  0.00    +0.000 A 
ATOM     20  C17 UNL     1     122.542 114.590  81.924  0.00  0.00    +0.000 A 
BRANCH  18  21
ATOM     21  O2  UNL     1     125.465 116.854  81.932  0.00  0.00    +0.000 OA
ATOM     22  H24 UNL     1     126.418 116.783  82.265  0.00  0.00    +0.000 HD
ENDBRANCH  18  21
BRANCH  17  23
ATOM     23  O3  UNL     1     126.589 114.625  80.752  0.00  0.00    +0.000 OA
ATOM     24  C18 UNL     1     127.349 113.487  80.362  0.00  0.00    +0.000 C 
ENDBRANCH  17  23
ENDBRANCH  14  15
ENDBRANCH   3  14
TORSDOF 10
ENDMDL
