REMARK  Name = /home/prospero/dock/8WCC/capsaicin/capsaicin.pdb
REMARK  13 active torsions:
REMARK  status: ('A' for Active; 'I' for Inactive)
REMARK    1  A    between atoms: C1_1  and  C2_2
REMARK    2  A    between atoms: C2_2  and  C3_3
REMARK    3  A    between atoms: C2_2  and  C4_4
REMARK    4  A    between atoms: C5_5  and  C6_6
REMARK    5  A    between atoms: C6_6  and  C7_7
REMARK    6  A    between atoms: C7_7  and  C8_8
REMARK    7  A    between atoms: C8_8  and  C9_9
REMARK    8  A    between atoms: C9_9  and  C10_10
REMARK    9  A    between atoms: N1_12  and  C11_13
REMARK   10  A    between atoms: C11_13  and  C12_14
REMARK   11  A    between atoms: C14_16  and  O3_21
REMARK   12  A    between atoms: C15_17  and  O2_20
REMARK   13  A    between atoms: O3_21  and  C18_22
REMARK                            x       y       z     vdW  Elec       q    Type
REMARK                         _______ _______ _______ _____ _____    ______ ____
ROOT
ATOM      1  C10 UNL     1       0.460   1.001  -1.481  0.00  0.00    +0.000 C 
ATOM      2  O1  UNL     1       1.156   1.419  -2.445  0.00  0.00    +0.000 OA
ATOM      3  N1  UNL     1       0.480  -0.387  -1.118  0.00  0.00    +0.000 N 
ATOM      4  H18 UNL     1      -0.135  -0.716  -0.339  0.00  0.00    +0.000 HD
ENDROOT
BRANCH   1   5
ATOM      5  C9  UNL     1      -0.436   1.951  -0.747  0.00  0.00    +0.000 C 
BRANCH   5   6
ATOM      6  C8  UNL     1      -1.860   1.874  -1.310  0.00  0.00    +0.000 C 
BRANCH   6   7
ATOM      7  C7  UNL     1      -2.844   2.809  -0.581  0.00  0.00    +0.000 C 
BRANCH   7   8
ATOM      8  C6  UNL     1      -3.119   2.422   0.882  0.00  0.00    +0.000 C 
BRANCH   8  10
ATOM      9  C4  UNL     1      -2.890   0.039   1.564  0.00  0.00    +0.000 C 
ATOM     10  C5  UNL     1      -3.630   1.010   0.999  0.00  0.00    +0.000 C 
BRANCH   9  12
ATOM     11  C1  UNL     1      -3.423  -1.991   0.187  0.00  0.00    +0.000 C 
ATOM     12  C2  UNL     1      -3.331  -1.407   1.602  0.00  0.00    +0.000 C 
ATOM     13  C3  UNL     1      -4.653  -1.575   2.361  0.00  0.00    +0.000 C 
ENDBRANCH   9  12
ENDBRANCH   8  10
ENDBRANCH   7   8
ENDBRANCH   6   7
ENDBRANCH   5   6
ENDBRANCH   1   5
BRANCH   3  14
ATOM     14  C11 UNL     1       1.299  -1.372  -1.819  0.00  0.00    +0.000 C 
BRANCH  14  15
ATOM     15  C12 UNL     1       2.755  -1.179  -1.484  0.00  0.00    +0.000 A 
ATOM     16  C13 UNL     1       3.216  -1.435  -0.183  0.00  0.00    +0.000 A 
ATOM     17  C14 UNL     1       4.573  -1.244   0.146  0.00  0.00    +0.000 A 
ATOM     18  C15 UNL     1       5.462  -0.796  -0.842  0.00  0.00    +0.000 A 
ATOM     19  C16 UNL     1       5.002  -0.540  -2.140  0.00  0.00    +0.000 A 
ATOM     20  C17 UNL     1       3.656  -0.727  -2.460  0.00  0.00    +0.000 A 
BRANCH  18  21
ATOM     21  O2  UNL     1       6.805  -0.606  -0.525  0.00  0.00    +0.000 OA
ATOM     22  H24 UNL     1       7.472  -0.285  -1.216  0.00  0.00    +0.000 HD
ENDBRANCH  18  21
BRANCH  17  23
ATOM     23  O3  UNL     1       5.071  -1.484   1.436  0.00  0.00    +0.000 OA
ATOM     24  C18 UNL     1       4.284  -1.937   2.532  0.00  0.00    +0.000 C 
ENDBRANCH  17  23
ENDBRANCH  14  15
ENDBRANCH   3  14
TORSDOF 10
