MODEL 1
REMARK VINA RESULT:    -5.127      0.000      0.000
REMARK INTER + INTRA:          -7.402
REMARK INTER:                  -6.776
REMARK INTRA:                  -0.625
REMARK UNBOUND:                -0.625
REMARK  Name = /home/prospero/dock/8WCC/retinol/retinol.pdb
REMARK  11 active torsions:
REMARK  status: ('A' for Active; 'I' for Inactive)
REMARK    1  A    between atoms: C1_1  and  C2_2
REMARK    2  A    between atoms: C3_3  and  C10_10
REMARK    3  A    between atoms: C4_4  and  C8_8
REMARK    4  A    between atoms: C4_4  and  C9_9
REMARK    5  A    between atoms: C11_11  and  C12_12
REMARK    6  A    between atoms: C12_12  and  C20_21
REMARK    7  A    between atoms: C13_13  and  C14_14
REMARK    8  A    between atoms: C15_15  and  C16_16
REMARK    9  A    between atoms: C16_16  and  C19_20
REMARK   10  A    between atoms: C17_17  and  C18_18
REMARK   11  A    between atoms: C18_18  and  O1_19
REMARK                            x       y       z     vdW  Elec       q    Type
REMARK                         _______ _______ _______ _____ _____    ______ ____
ROOT
ATOM      1  C10 UNL     1     121.074 112.771  83.147  0.00  0.00    +0.000 C 
ATOM      2  C11 UNL     1     121.324 113.961  82.588  0.00  0.00    +0.000 C 
ENDROOT
BRANCH   1   5
ATOM      3  C1  UNL     1     120.051 113.804  85.637  0.00  0.00    +0.000 C 
ATOM      4  C2  UNL     1     119.200 112.941  84.736  0.00  0.00    +0.000 C 
ATOM      5  C3  UNL     1     119.708 112.404  83.592  0.00  0.00    +0.000 C 
ATOM      6  C4  UNL     1     118.880 111.499  82.664  0.00  0.00    +0.000 C 
ATOM      7  C5  UNL     1     117.597 110.973  83.362  0.00  0.00    +0.000 C 
ATOM      8  C6  UNL     1     116.892 112.070  84.150  0.00  0.00    +0.000 C 
ATOM      9  C7  UNL     1     117.819 112.590  85.244  0.00  0.00    +0.000 C 
ATOM     10  C8  UNL     1     119.715 110.272  82.234  0.00  0.00    +0.000 C 
ATOM     11  C9  UNL     1     118.497 112.300  81.399  0.00  0.00    +0.000 C 
ENDBRANCH   1   5
BRANCH   2  12
ATOM     12  C12 UNL     1     122.670 114.367  82.114  0.00  0.00    +0.000 C 
ATOM     13  C13 UNL     1     123.351 113.504  81.336  0.00  0.00    +0.000 C 
ATOM     14  C20 UNL     1     123.242 115.712  82.498  0.00  0.00    +0.000 C 
BRANCH  13  15
ATOM     15  C14 UNL     1     124.672 113.792  80.735  0.00  0.00    +0.000 C 
ATOM     16  C15 UNL     1     125.682 112.923  80.863  0.00  0.00    +0.000 C 
BRANCH  16  17
ATOM     17  C16 UNL     1     127.035 113.148  80.285  0.00  0.00    +0.000 C 
ATOM     18  C17 UNL     1     127.553 114.392  80.361  0.00  0.00    +0.000 C 
ATOM     19  C19 UNL     1     127.763 112.022  79.585  0.00  0.00    +0.000 C 
BRANCH  18  20
ATOM     20  C18 UNL     1     128.878 114.800  79.786  0.00  0.00    +0.000 C 
BRANCH  20  21
ATOM     21  O1  UNL     1     128.918 116.190  79.615  0.00  0.00    +0.000 OA
ATOM     22  H24 UNL     1     127.990 116.467  79.398  0.00  0.00    +0.000 HD
ENDBRANCH  20  21
ENDBRANCH  18  20
ENDBRANCH  16  17
ENDBRANCH  13  15
ENDBRANCH   2  12
TORSDOF 6
ENDMDL
MODEL 2
REMARK VINA RESULT:    -3.778      0.638      2.196
REMARK INTER + INTRA:          -5.619
REMARK INTER:                  -5.064
REMARK INTRA:                  -0.555
REMARK UNBOUND:                -0.625
REMARK  Name = /home/prospero/dock/8WCC/retinol/retinol.pdb
REMARK  11 active torsions:
REMARK  status: ('A' for Active; 'I' for Inactive)
REMARK    1  A    between atoms: C1_1  and  C2_2
REMARK    2  A    between atoms: C3_3  and  C10_10
REMARK    3  A    between atoms: C4_4  and  C8_8
REMARK    4  A    between atoms: C4_4  and  C9_9
REMARK    5  A    between atoms: C11_11  and  C12_12
REMARK    6  A    between atoms: C12_12  and  C20_21
REMARK    7  A    between atoms: C13_13  and  C14_14
REMARK    8  A    between atoms: C15_15  and  C16_16
REMARK    9  A    between atoms: C16_16  and  C19_20
REMARK   10  A    between atoms: C17_17  and  C18_18
REMARK   11  A    between atoms: C18_18  and  O1_19
REMARK                            x       y       z     vdW  Elec       q    Type
REMARK                         _______ _______ _______ _____ _____    ______ ____
ROOT
ATOM      1  C10 UNL     1     120.936 113.077  83.304  0.00  0.00    +0.000 C 
ATOM      2  C11 UNL     1     121.254 114.190  82.631  0.00  0.00    +0.000 C 
ENDROOT
BRANCH   1   5
ATOM      3  C1  UNL     1     119.229 111.981  81.255  0.00  0.00    +0.000 C 
ATOM      4  C2  UNL     1     118.735 112.172  82.670  0.00  0.00    +0.000 C 
ATOM      5  C3  UNL     1     119.525 112.748  83.618  0.00  0.00    +0.000 C 
ATOM      6  C4  UNL     1     119.047 112.984  85.061  0.00  0.00    +0.000 C 
ATOM      7  C5  UNL     1     117.504 112.864  85.187  0.00  0.00    +0.000 C 
ATOM      8  C6  UNL     1     116.965 111.667  84.413  0.00  0.00    +0.000 C 
ATOM      9  C7  UNL     1     117.285 111.830  82.931  0.00  0.00    +0.000 C 
ATOM     10  C8  UNL     1     119.446 114.402  85.529  0.00  0.00    +0.000 C 
ATOM     11  C9  UNL     1     119.729 111.952  85.986  0.00  0.00    +0.000 C 
ENDBRANCH   1   5
BRANCH   2  12
ATOM     12  C12 UNL     1     122.648 114.554  82.279  0.00  0.00    +0.000 C 
ATOM     13  C13 UNL     1     123.310 113.758  81.418  0.00  0.00    +0.000 C 
ATOM     14  C20 UNL     1     123.289 115.786  82.875  0.00  0.00    +0.000 C 
BRANCH  13  15
ATOM     15  C14 UNL     1     124.679 114.026  80.924  0.00  0.00    +0.000 C 
ATOM     16  C15 UNL     1     125.592 113.047  80.885  0.00  0.00    +0.000 C 
BRANCH  16  17
ATOM     17  C16 UNL     1     126.985 113.245  80.401  0.00  0.00    +0.000 C 
ATOM     18  C17 UNL     1     127.455 114.508  80.334  0.00  0.00    +0.000 C 
ATOM     19  C19 UNL     1     127.809 112.062  79.943  0.00  0.00    +0.000 C 
BRANCH  18  20
ATOM     20  C18 UNL     1     128.815 114.886  79.823  0.00  0.00    +0.000 C 
BRANCH  20  21
ATOM     21  O1  UNL     1     128.960 116.280  79.834  0.00  0.00    +0.000 OA
ATOM     22  H24 UNL     1     129.925 116.454  79.984  0.00  0.00    +0.000 HD
ENDBRANCH  20  21
ENDBRANCH  18  20
ENDBRANCH  16  17
ENDBRANCH  13  15
ENDBRANCH   2  12
TORSDOF 6
ENDMDL
MODEL 3
REMARK VINA RESULT:    -3.202      1.211      2.419
REMARK INTER + INTRA:          -4.856
REMARK INTER:                  -4.312
REMARK INTRA:                  -0.544
REMARK UNBOUND:                -0.625
REMARK  Name = /home/prospero/dock/8WCC/retinol/retinol.pdb
REMARK  11 active torsions:
REMARK  status: ('A' for Active; 'I' for Inactive)
REMARK    1  A    between atoms: C1_1  and  C2_2
REMARK    2  A    between atoms: C3_3  and  C10_10
REMARK    3  A    between atoms: C4_4  and  C8_8
REMARK    4  A    between atoms: C4_4  and  C9_9
REMARK    5  A    between atoms: C11_11  and  C12_12
REMARK    6  A    between atoms: C12_12  and  C20_21
REMARK    7  A    between atoms: C13_13  and  C14_14
REMARK    8  A    between atoms: C15_15  and  C16_16
REMARK    9  A    between atoms: C16_16  and  C19_20
REMARK   10  A    between atoms: C17_17  and  C18_18
REMARK   11  A    between atoms: C18_18  and  O1_19
REMARK                            x       y       z     vdW  Elec       q    Type
REMARK                         _______ _______ _______ _____ _____    ______ ____
ROOT
ATOM      1  C10 UNL     1     120.439 113.558  81.884  0.00  0.00    +0.000 C 
ATOM      2  C11 UNL     1     121.573 113.072  81.367  0.00  0.00    +0.000 C 
ENDROOT
BRANCH   1   5
ATOM      3  C1  UNL     1     118.644 114.214  79.725  0.00  0.00    +0.000 C 
ATOM      4  C2  UNL     1     118.336 113.092  80.688  0.00  0.00    +0.000 C 
ATOM      5  C3  UNL     1     119.157 112.827  81.743  0.00  0.00    +0.000 C 
ATOM      6  C4  UNL     1     118.862 111.711  82.759  0.00  0.00    +0.000 C 
ATOM      7  C5  UNL     1     117.391 111.221  82.672  0.00  0.00    +0.000 C 
ATOM      8  C6  UNL     1     116.939 111.047  81.227  0.00  0.00    +0.000 C 
ATOM      9  C7  UNL     1     117.011 112.387  80.503  0.00  0.00    +0.000 C 
ATOM     10  C8  UNL     1     119.099 112.225  84.197  0.00  0.00    +0.000 C 
ATOM     11  C9  UNL     1     119.824 110.531  82.495  0.00  0.00    +0.000 C 
ENDBRANCH   1   5
BRANCH   2  12
ATOM     12  C12 UNL     1     122.882 113.759  81.495  0.00  0.00    +0.000 C 
ATOM     13  C13 UNL     1     123.892 113.343  80.707  0.00  0.00    +0.000 C 
ATOM     14  C20 UNL     1     123.057 114.891  82.481  0.00  0.00    +0.000 C 
BRANCH  13  15
ATOM     15  C14 UNL     1     125.232 113.970  80.674  0.00  0.00    +0.000 C 
ATOM     16  C15 UNL     1     126.337 113.215  80.679  0.00  0.00    +0.000 C 
BRANCH  16  17
ATOM     17  C16 UNL     1     127.714 113.777  80.647  0.00  0.00    +0.000 C 
ATOM     18  C17 UNL     1     127.928 114.879  79.899  0.00  0.00    +0.000 C 
ATOM     19  C19 UNL     1     128.838 113.085  81.388  0.00  0.00    +0.000 C 
BRANCH  18  20
ATOM     20  C18 UNL     1     129.263 115.541  79.717  0.00  0.00    +0.000 C 
BRANCH  20  21
ATOM     21  O1  UNL     1     129.259 116.313  78.548  0.00  0.00    +0.000 OA
ATOM     22  H24 UNL     1     128.646 117.073  78.723  0.00  0.00    +0.000 HD
ENDBRANCH  20  21
ENDBRANCH  18  20
ENDBRANCH  16  17
ENDBRANCH  13  15
ENDBRANCH   2  12
TORSDOF 6
ENDMDL
