REMARK  Name = /home/prospero/dock/8WCC/retinol/retinol.pdb
REMARK  11 active torsions:
REMARK  status: ('A' for Active; 'I' for Inactive)
REMARK    1  A    between atoms: C1_1  and  C2_2
REMARK    2  A    between atoms: C3_3  and  C10_10
REMARK    3  A    between atoms: C4_4  and  C8_8
REMARK    4  A    between atoms: C4_4  and  C9_9
REMARK    5  A    between atoms: C11_11  and  C12_12
REMARK    6  A    between atoms: C12_12  and  C20_21
REMARK    7  A    between atoms: C13_13  and  C14_14
REMARK    8  A    between atoms: C15_15  and  C16_16
REMARK    9  A    between atoms: C16_16  and  C19_20
REMARK   10  A    between atoms: C17_17  and  C18_18
REMARK   11  A    between atoms: C18_18  and  O1_19
REMARK                            x       y       z     vdW  Elec       q    Type
REMARK                         _______ _______ _______ _____ _____    ______ ____
ROOT
ATOM      1  C10 UNL     1      -1.806   0.626   0.271  0.00  0.00    +0.000 C 
ATOM      2  C11 UNL     1      -0.731  -0.125   0.003  0.00  0.00    +0.000 C 
ENDROOT
BRANCH   1   5
ATOM      3  C1  UNL     1      -2.246   1.377  -2.478  0.00  0.00    +0.000 C 
ATOM      4  C2  UNL     1      -3.303   0.645  -1.685  0.00  0.00    +0.000 C 
ATOM      5  C3  UNL     1      -3.114   0.348  -0.369  0.00  0.00    +0.000 C 
ATOM      6  C4  UNL     1      -4.178  -0.371   0.477  0.00  0.00    +0.000 C 
ATOM      7  C5  UNL     1      -5.572  -0.354  -0.207  0.00  0.00    +0.000 C 
ATOM      8  C6  UNL     1      -5.474  -0.663  -1.696  0.00  0.00    +0.000 C 
ATOM      9  C7  UNL     1      -4.621   0.397  -2.384  0.00  0.00    +0.000 C 
ATOM     10  C8  UNL     1      -4.323   0.321   1.851  0.00  0.00    +0.000 C 
ATOM     11  C9  UNL     1      -3.727  -1.831   0.708  0.00  0.00    +0.000 C 
ENDBRANCH   1   5
BRANCH   2  12
ATOM     12  C12 UNL     1       0.594   0.104   0.629  0.00  0.00    +0.000 C 
ATOM     13  C13 UNL     1       1.690  -0.255  -0.066  0.00  0.00    +0.000 C 
ATOM     14  C20 UNL     1       0.693   0.726   2.003  0.00  0.00    +0.000 C 
BRANCH  13  15
ATOM     15  C14 UNL     1       3.078  -0.031   0.397  0.00  0.00    +0.000 C 
ATOM     16  C15 UNL     1       4.115  -0.498  -0.309  0.00  0.00    +0.000 C 
BRANCH  16  17
ATOM     17  C16 UNL     1       5.534  -0.310   0.097  0.00  0.00    +0.000 C 
ATOM     18  C17 UNL     1       6.459  -1.123  -0.453  0.00  0.00    +0.000 C 
ATOM     19  C19 UNL     1       5.898   0.723   1.141  0.00  0.00    +0.000 C 
BRANCH  18  20
ATOM     20  C18 UNL     1       7.922  -1.101  -0.116  0.00  0.00    +0.000 C 
BRANCH  20  21
ATOM     21  O1  UNL     1       8.106  -1.416   1.237  0.00  0.00    +0.000 OA
ATOM     22  H24 UNL     1       9.081  -1.347   1.405  0.00  0.00    +0.000 HD
ENDBRANCH  20  21
ENDBRANCH  18  20
ENDBRANCH  16  17
ENDBRANCH  13  15
ENDBRANCH   2  12
TORSDOF 6
