MODEL 1
REMARK VINA RESULT:    -4.140      0.000      0.000
REMARK INTER + INTRA:          -5.335
REMARK INTER:                  -5.471
REMARK INTRA:                   0.135
REMARK UNBOUND:                 0.135
REMARK  Name = /home/prospero/dock/8WCC/cholesterol/cholesterol.pdb
REMARK  11 active torsions:
REMARK  status: ('A' for Active; 'I' for Inactive)
REMARK    1  A    between atoms: C1_1  and  C2_2
REMARK    2  A    between atoms: C2_2  and  C3_3
REMARK    3  A    between atoms: C2_2  and  C9_9
REMARK    4  A    between atoms: C3_3  and  C4_4
REMARK    5  A    between atoms: C4_4  and  C5_5
REMARK    6  A    between atoms: C5_5  and  C6_6
REMARK    7  A    between atoms: C6_6  and  C7_7
REMARK    8  A    between atoms: C6_6  and  C8_8
REMARK    9  A    between atoms: C13_13  and  C27_28
REMARK   10  A    between atoms: C21_21  and  C26_27
REMARK   11  A    between atoms: C24_24  and  O1_26
REMARK                            x       y       z     vdW  Elec       q    Type
REMARK                         _______ _______ _______ _____ _____    ______ ____
ROOT
ATOM      1  C9  UNL     1     123.424 115.688  83.595  0.00  0.00    +0.000 C 
ATOM      2  C10 UNL     1     122.858 116.194  84.952  0.00  0.00    +0.000 C 
ATOM      3  C11 UNL     1     121.574 115.401  85.238  0.00  0.00    +0.000 C 
ATOM      4  C12 UNL     1     121.574 114.315  84.178  0.00  0.00    +0.000 C 
ATOM      5  C13 UNL     1     122.200 114.973  82.938  0.00  0.00    +0.000 C 
ATOM      6  C14 UNL     1     122.543 113.825  81.957  0.00  0.00    +0.000 C 
ATOM      7  C15 UNL     1     121.290 112.996  81.591  0.00  0.00    +0.000 C 
ATOM      8  C16 UNL     1     120.515 112.450  82.837  0.00  0.00    +0.000 C 
ATOM      9  C17 UNL     1     120.249 113.573  83.889  0.00  0.00    +0.000 C 
ATOM     10  C18 UNL     1     119.685 112.964  85.183  0.00  0.00    +0.000 C 
ATOM     11  C19 UNL     1     118.595 111.957  84.942  0.00  0.00    +0.000 C 
ATOM     12  C20 UNL     1     118.437 111.297  83.777  0.00  0.00    +0.000 C 
ATOM     13  C21 UNL     1     119.183 111.676  82.487  0.00  0.00    +0.000 C 
ATOM     14  C22 UNL     1     119.480 110.357  81.687  0.00  0.00    +0.000 C 
ATOM     15  C23 UNL     1     119.742 109.153  82.607  0.00  0.00    +0.000 C 
ATOM     16  C24 UNL     1     118.505 108.812  83.481  0.00  0.00    +0.000 C 
ATOM     17  C25 UNL     1     117.603 110.036  83.751  0.00  0.00    +0.000 C 
ATOM     18  C26 UNL     1     118.223 112.547  81.635  0.00  0.00    +0.000 C 
ATOM     19  C27 UNL     1     121.253 116.016  82.257  0.00  0.00    +0.000 C 
ENDROOT
BRANCH   1  21
ATOM     20  C1  UNL     1     123.233 118.056  82.597  0.00  0.00    +0.000 C 
ATOM     21  C2  UNL     1     124.142 116.827  82.790  0.00  0.00    +0.000 C 
BRANCH  21  22
ATOM     22  C3  UNL     1     124.620 116.323  81.389  0.00  0.00    +0.000 C 
BRANCH  22  23
ATOM     23  C4  UNL     1     125.821 115.364  81.464  0.00  0.00    +0.000 C 
BRANCH  23  24
ATOM     24  C5  UNL     1     125.534 114.008  80.789  0.00  0.00    +0.000 C 
BRANCH  24  25
ATOM     25  C6  UNL     1     126.786 113.287  80.237  0.00  0.00    +0.000 C 
ATOM     26  C7  UNL     1     128.052 114.151  80.327  0.00  0.00    +0.000 C 
ATOM     27  C8  UNL     1     127.011 111.916  80.892  0.00  0.00    +0.000 C 
ENDBRANCH  24  25
ENDBRANCH  23  24
ENDBRANCH  22  23
ENDBRANCH  21  22
ENDBRANCH   1  21
BRANCH  16  28
ATOM     28  O1  UNL     1     117.737 107.812  82.862  0.00  0.00    +0.000 OA
ATOM     29  H40 UNL     1     116.857 107.798  83.320  0.00  0.00    +0.000 HD
ENDBRANCH  16  28
TORSDOF 6
ENDMDL
MODEL 2
REMARK VINA RESULT:    -2.478      2.158      4.242
REMARK INTER + INTRA:          -3.139
REMARK INTER:                  -3.101
REMARK INTRA:                  -0.038
REMARK UNBOUND:                 0.135
REMARK  Name = /home/prospero/dock/8WCC/cholesterol/cholesterol.pdb
REMARK  11 active torsions:
REMARK  status: ('A' for Active; 'I' for Inactive)
REMARK    1  A    between atoms: C1_1  and  C2_2
REMARK    2  A    between atoms: C2_2  and  C3_3
REMARK    3  A    between atoms: C2_2  and  C9_9
REMARK    4  A    between atoms: C3_3  and  C4_4
REMARK    5  A    between atoms: C4_4  and  C5_5
REMARK    6  A    between atoms: C5_5  and  C6_6
REMARK    7  A    between atoms: C6_6  and  C7_7
REMARK    8  A    between atoms: C6_6  and  C8_8
REMARK    9  A    between atoms: C13_13  and  C27_28
REMARK   10  A    between atoms: C21_21  and  C26_27
REMARK   11  A    between atoms: C24_24  and  O1_26
REMARK                            x       y       z     vdW  Elec       q    Type
REMARK                         _______ _______ _______ _____ _____    ______ ____
ROOT
ATOM      1  C9  UNL     1     122.850 115.940  84.490  0.00  0.00    +0.000 C 
ATOM      2  C10 UNL     1     121.947 116.339  85.692  0.00  0.00    +0.000 C 
ATOM      3  C11 UNL     1     120.702 115.441  85.649  0.00  0.00    +0.000 C 
ATOM      4  C12 UNL     1     121.036 114.407  84.588  0.00  0.00    +0.000 C 
ATOM      5  C13 UNL     1     121.874 115.167  83.547  0.00  0.00    +0.000 C 
ATOM      6  C14 UNL     1     122.527 114.094  82.641  0.00  0.00    +0.000 C 
ATOM      7  C15 UNL     1     121.465 113.193  81.971  0.00  0.00    +0.000 C 
ATOM      8  C16 UNL     1     120.473 112.533  82.986  0.00  0.00    +0.000 C 
ATOM      9  C17 UNL     1     119.879 113.584  83.978  0.00  0.00    +0.000 C 
ATOM     10  C18 UNL     1     119.085 112.875  85.087  0.00  0.00    +0.000 C 
ATOM     11  C19 UNL     1     118.168 111.802  84.572  0.00  0.00    +0.000 C 
ATOM     12  C20 UNL     1     118.337 111.186  83.384  0.00  0.00    +0.000 C 
ATOM     13  C21 UNL     1     119.325 111.679  82.314  0.00  0.00    +0.000 C 
ATOM     14  C22 UNL     1     119.907 110.424  81.569  0.00  0.00    +0.000 C 
ATOM     15  C23 UNL     1     120.049 109.202  82.491  0.00  0.00    +0.000 C 
ATOM     16  C24 UNL     1     118.677 108.730  83.043  0.00  0.00    +0.000 C 
ATOM     17  C25 UNL     1     117.640 109.869  83.130  0.00  0.00    +0.000 C 
ATOM     18  C26 UNL     1     118.518 112.515  81.287  0.00  0.00    +0.000 C 
ATOM     19  C27 UNL     1     121.025 116.167  82.693  0.00  0.00    +0.000 C 
ENDROOT
BRANCH   1  21
ATOM     20  C1  UNL     1     124.391 116.802  82.613  0.00  0.00    +0.000 C 
ATOM     21  C2  UNL     1     123.637 117.165  83.907  0.00  0.00    +0.000 C 
BRANCH  21  22
ATOM     22  C3  UNL     1     124.656 117.736  84.946  0.00  0.00    +0.000 C 
BRANCH  22  23
ATOM     23  C4  UNL     1     124.016 118.701  85.960  0.00  0.00    +0.000 C 
BRANCH  23  24
ATOM     24  C5  UNL     1     124.918 118.948  87.187  0.00  0.00    +0.000 C 
BRANCH  24  25
ATOM     25  C6  UNL     1     124.155 119.134  88.519  0.00  0.00    +0.000 C 
ATOM     26  C7  UNL     1     125.055 118.934  89.748  0.00  0.00    +0.000 C 
ATOM     27  C8  UNL     1     123.420 120.480  88.592  0.00  0.00    +0.000 C 
ENDBRANCH  24  25
ENDBRANCH  23  24
ENDBRANCH  22  23
ENDBRANCH  21  22
ENDBRANCH   1  21
BRANCH  16  28
ATOM     28  O1  UNL     1     118.159 107.705  82.234  0.00  0.00    +0.000 OA
ATOM     29  H40 UNL     1     118.511 107.854  81.318  0.00  0.00    +0.000 HD
ENDBRANCH  16  28
TORSDOF 6
ENDMDL
