REMARK  Name = /home/prospero/dock/8WCC/cholesterol/cholesterol.pdb
REMARK  11 active torsions:
REMARK  status: ('A' for Active; 'I' for Inactive)
REMARK    1  A    between atoms: C1_1  and  C2_2
REMARK    2  A    between atoms: C2_2  and  C3_3
REMARK    3  A    between atoms: C2_2  and  C9_9
REMARK    4  A    between atoms: C3_3  and  C4_4
REMARK    5  A    between atoms: C4_4  and  C5_5
REMARK    6  A    between atoms: C5_5  and  C6_6
REMARK    7  A    between atoms: C6_6  and  C7_7
REMARK    8  A    between atoms: C6_6  and  C8_8
REMARK    9  A    between atoms: C13_13  and  C27_28
REMARK   10  A    between atoms: C21_21  and  C26_27
REMARK   11  A    between atoms: C24_24  and  O1_26
REMARK                            x       y       z     vdW  Elec       q    Type
REMARK                         _______ _______ _______ _____ _____    ______ ____
ROOT
ATOM      1  C9  UNL     1       1.399   0.410  -0.946  0.00  0.00    +0.000 C 
ATOM      2  C10 UNL     1       1.456  -0.883  -1.809  0.00  0.00    +0.000 C 
ATOM      3  C11 UNL     1       0.066  -1.533  -1.753  0.00  0.00    +0.000 C 
ATOM      4  C12 UNL     1      -0.798  -0.486  -1.073  0.00  0.00    +0.000 C 
ATOM      5  C13 UNL     1       0.133   0.195  -0.057  0.00  0.00    +0.000 C 
ATOM      6  C14 UNL     1      -0.589   1.485   0.404  0.00  0.00    +0.000 C 
ATOM      7  C15 UNL     1      -1.973   1.174   1.018  0.00  0.00    +0.000 C 
ATOM      8  C16 UNL     1      -2.897   0.325   0.082  0.00  0.00    +0.000 C 
ATOM      9  C17 UNL     1      -2.154  -0.930  -0.478  0.00  0.00    +0.000 C 
ATOM     10  C18 UNL     1      -3.011  -1.616  -1.554  0.00  0.00    +0.000 C 
ATOM     11  C19 UNL     1      -4.452  -1.774  -1.158  0.00  0.00    +0.000 C 
ATOM     12  C20 UNL     1      -5.053  -1.014  -0.220  0.00  0.00    +0.000 C 
ATOM     13  C21 UNL     1      -4.282  -0.079   0.726  0.00  0.00    +0.000 C 
ATOM     14  C22 UNL     1      -5.175   1.184   1.003  0.00  0.00    +0.000 C 
ATOM     15  C23 UNL     1      -6.040   1.573  -0.207  0.00  0.00    +0.000 C 
ATOM     16  C24 UNL     1      -7.048   0.454  -0.583  0.00  0.00    +0.000 C 
ATOM     17  C25 UNL     1      -6.563  -0.954  -0.176  0.00  0.00    +0.000 C 
ATOM     18  C26 UNL     1      -4.089  -0.833   2.068  0.00  0.00    +0.000 C 
ATOM     19  C27 UNL     1       0.469  -0.717   1.169  0.00  0.00    +0.000 C 
ENDROOT
BRANCH   1  21
ATOM     20  C1  UNL     1       2.695   1.978   0.636  0.00  0.00    +0.000 C 
ATOM     21  C2  UNL     1       2.766   0.710  -0.237  0.00  0.00    +0.000 C 
BRANCH  21  22
ATOM     22  C3  UNL     1       3.924   0.872  -1.275  0.00  0.00    +0.000 C 
BRANCH  22  23
ATOM     23  C4  UNL     1       5.170   0.036  -0.933  0.00  0.00    +0.000 C 
BRANCH  23  24
ATOM     24  C5  UNL     1       5.892   0.546   0.331  0.00  0.00    +0.000 C 
BRANCH  24  25
ATOM     25  C6  UNL     1       7.234  -0.161   0.634  0.00  0.00    +0.000 C 
ATOM     26  C7  UNL     1       7.072  -1.676   0.828  0.00  0.00    +0.000 C 
ATOM     27  C8  UNL     1       8.309   0.144  -0.419  0.00  0.00    +0.000 C 
ENDBRANCH  24  25
ENDBRANCH  23  24
ENDBRANCH  22  23
ENDBRANCH  21  22
ENDBRANCH   1  21
BRANCH  16  28
ATOM     28  O1  UNL     1      -8.290   0.699   0.026  0.00  0.00    +0.000 OA
ATOM     29  H40 UNL     1      -8.718   1.439  -0.479  0.00  0.00    +0.000 HD
ENDBRANCH  16  28
TORSDOF 6
