MODEL 1
REMARK VINA RESULT:    -3.215      0.000      0.000
REMARK INTER + INTRA:          -6.289
REMARK INTER:                  -5.376
REMARK INTRA:                  -0.913
REMARK UNBOUND:                -0.913
REMARK  Name = /home/prospero/dock/8WCC/ticagrelol/ticagrelol.pdb
REMARK  14 active torsions:
REMARK  status: ('A' for Active; 'I' for Inactive)
REMARK    1  A    between atoms: C1_1  and  C2_2
REMARK    2  A    between atoms: C2_2  and  C3_3
REMARK    3  A    between atoms: C3_3  and  S1_4
REMARK    4  A    between atoms: S1_4  and  C4_5
REMARK    5  A    between atoms: C5_7  and  N6_25
REMARK    6  A    between atoms: N3_11  and  C8_14
REMARK    7  A    between atoms: C10_16  and  O3_21
REMARK    8  A    between atoms: C11_17  and  O2_20
REMARK    9  A    between atoms: C12_18  and  O1_19
REMARK   10  A    between atoms: O3_21  and  C13_22
REMARK   11  A    between atoms: C13_22  and  C14_23
REMARK   12  A    between atoms: C14_23  and  O4_24
REMARK   13  A    between atoms: N6_25  and  C15_26
REMARK   14  A    between atoms: C17_28  and  C18_29
REMARK                            x       y       z     vdW  Elec       q    Type
REMARK                         _______ _______ _______ _____ _____    ______ ____
ROOT
ATOM      1  C4  UNL     1     118.712 112.978  85.860  0.00  0.00    +0.000 A 
ATOM      2  N1  UNL     1     118.312 112.129  86.863  0.00  0.00    +0.000 NA
ATOM      3  C5  UNL     1     117.935 110.839  86.608  0.00  0.00    +0.000 A 
ATOM      4  C6  UNL     1     117.977 110.422  85.277  0.00  0.00    +0.000 A 
ATOM      5  C7  UNL     1     118.375 111.277  84.312  0.00  0.00    +0.000 A 
ATOM      6  N2  UNL     1     118.751 112.552  84.563  0.00  0.00    +0.000 NA
ATOM      7  N3  UNL     1     118.349 110.632  83.139  0.00  0.00    +0.000 N 
ATOM      8  N4  UNL     1     117.944 109.390  83.403  0.00  0.00    +0.000 NA
ATOM      9  N5  UNL     1     117.706 109.231  84.706  0.00  0.00    +0.000 NA
ENDROOT
BRANCH   7  10
ATOM     10  C8  UNL     1     118.730 111.145  81.821  0.00  0.00    +0.000 C 
ATOM     11  C9  UNL     1     120.248 111.302  81.684  0.00  0.00    +0.000 C 
ATOM     12  C10 UNL     1     120.506 112.665  81.020  0.00  0.00    +0.000 C 
ATOM     13  C11 UNL     1     119.127 113.208  80.609  0.00  0.00    +0.000 C 
ATOM     14  C12 UNL     1     118.152 112.539  81.576  0.00  0.00    +0.000 C 
BRANCH  14  15
ATOM     15  O1  UNL     1     116.828 112.513  81.095  0.00  0.00    +0.000 OA
ATOM     16  H14 UNL     1     116.354 113.317  81.432  0.00  0.00    +0.000 HD
ENDBRANCH  14  15
BRANCH  13  17
ATOM     17  O2  UNL     1     118.839 112.836  79.285  0.00  0.00    +0.000 OA
ATOM     18  H15 UNL     1     119.477 112.113  79.049  0.00  0.00    +0.000 HD
ENDBRANCH  13  17
BRANCH  12  19
ATOM     19  O3  UNL     1     121.100 113.536  81.969  0.00  0.00    +0.000 OA
BRANCH  19  20
ATOM     20  C13 UNL     1     122.471 113.234  82.131  0.00  0.00    +0.000 C 
BRANCH  20  21
ATOM     21  C14 UNL     1     123.253 113.786  80.944  0.00  0.00    +0.000 C 
BRANCH  21  22
ATOM     22  O4  UNL     1     124.631 113.642  81.154  0.00  0.00    +0.000 OA
ATOM     23  H20 UNL     1     124.746 113.325  82.088  0.00  0.00    +0.000 HD
ENDBRANCH  21  22
ENDBRANCH  20  21
ENDBRANCH  19  20
ENDBRANCH  12  19
ENDBRANCH   7  10
BRANCH   3  24
ATOM     24  N6  UNL     1     117.525 109.990  87.692  0.00  0.00    +0.000 N 
ATOM     25  H21 UNL     1     118.256 109.668  88.366  0.00  0.00    +0.000 HD
BRANCH  24  26
ATOM     26  C15 UNL     1     116.161 109.495  87.861  0.00  0.00    +0.000 C 
ATOM     27  C16 UNL     1     115.345 110.323  88.848  0.00  0.00    +0.000 C 
ATOM     28  C17 UNL     1     115.874 108.953  89.257  0.00  0.00    +0.000 C 
BRANCH  28  29
ATOM     29  C18 UNL     1     114.836 107.854  89.394  0.00  0.00    +0.000 A 
ATOM     30  C19 UNL     1     114.042 107.390  88.322  0.00  0.00    +0.000 A 
ATOM     31  C20 UNL     1     113.100 106.375  88.524  0.00  0.00    +0.000 A 
ATOM     32  C21 UNL     1     112.937 105.813  89.793  0.00  0.00    +0.000 A 
ATOM     33  C22 UNL     1     113.714 106.265  90.861  0.00  0.00    +0.000 A 
ATOM     34  C23 UNL     1     114.656 107.279  90.664  0.00  0.00    +0.000 A 
ATOM     35  F1  UNL     1     112.021 104.833  89.990  0.00  0.00    +0.000 F 
ATOM     36  F2  UNL     1     112.340 105.944  87.487  0.00  0.00    +0.000 F 
ENDBRANCH  28  29
ENDBRANCH  24  26
ENDBRANCH   3  24
BRANCH   1  37
ATOM     37  S1  UNL     1     119.177 114.660  86.251  0.00  0.00    +0.000 S 
BRANCH  37  38
ATOM     38  C3  UNL     1     120.778 114.540  85.378  0.00  0.00    +0.000 C 
BRANCH  38  40
ATOM     39  C1  UNL     1     122.473 116.011  84.196  0.00  0.00    +0.000 C 
ATOM     40  C2  UNL     1     120.992 115.746  84.461  0.00  0.00    +0.000 C 
ENDBRANCH  38  40
ENDBRANCH  37  38
ENDBRANCH   1  37
TORSDOF 13
ENDMDL
MODEL 2
REMARK VINA RESULT:    -2.430      5.920     10.146
REMARK INTER + INTRA:          -4.977
REMARK INTER:                  -4.280
REMARK INTRA:                  -0.696
REMARK UNBOUND:                -0.913
REMARK  Name = /home/prospero/dock/8WCC/ticagrelol/ticagrelol.pdb
REMARK  14 active torsions:
REMARK  status: ('A' for Active; 'I' for Inactive)
REMARK    1  A    between atoms: C1_1  and  C2_2
REMARK    2  A    between atoms: C2_2  and  C3_3
REMARK    3  A    between atoms: C3_3  and  S1_4
REMARK    4  A    between atoms: S1_4  and  C4_5
REMARK    5  A    between atoms: C5_7  and  N6_25
REMARK    6  A    between atoms: N3_11  and  C8_14
REMARK    7  A    between atoms: C10_16  and  O3_21
REMARK    8  A    between atoms: C11_17  and  O2_20
REMARK    9  A    between atoms: C12_18  and  O1_19
REMARK   10  A    between atoms: O3_21  and  C13_22
REMARK   11  A    between atoms: C13_22  and  C14_23
REMARK   12  A    between atoms: C14_23  and  O4_24
REMARK   13  A    between atoms: N6_25  and  C15_26
REMARK   14  A    between atoms: C17_28  and  C18_29
REMARK                            x       y       z     vdW  Elec       q    Type
REMARK                         _______ _______ _______ _____ _____    ______ ____
ROOT
ATOM      1  C4  UNL     1     119.873 113.579  81.938  0.00  0.00    +0.000 A 
ATOM      2  N1  UNL     1     120.863 114.517  82.101  0.00  0.00    +0.000 NA
ATOM      3  C5  UNL     1     121.273 114.925  83.341  0.00  0.00    +0.000 A 
ATOM      4  C6  UNL     1     120.638 114.341  84.438  0.00  0.00    +0.000 A 
ATOM      5  C7  UNL     1     119.669 113.422  84.249  0.00  0.00    +0.000 A 
ATOM      6  N2  UNL     1     119.264 113.016  83.024  0.00  0.00    +0.000 NA
ATOM      7  N3  UNL     1     119.242 113.005  85.447  0.00  0.00    +0.000 N 
ATOM      8  N4  UNL     1     119.962 113.667  86.352  0.00  0.00    +0.000 NA
ATOM      9  N5  UNL     1     120.825 114.497  85.764  0.00  0.00    +0.000 NA
ENDROOT
BRANCH   7  10
ATOM     10  C8  UNL     1     118.227 111.990  85.738  0.00  0.00    +0.000 C 
ATOM     11  C9  UNL     1     118.851 110.676  86.221  0.00  0.00    +0.000 C 
ATOM     12  C10 UNL     1     118.134 109.534  85.482  0.00  0.00    +0.000 C 
ATOM     13  C11 UNL     1     116.973 110.185  84.712  0.00  0.00    +0.000 C 
ATOM     14  C12 UNL     1     117.427 111.626  84.486  0.00  0.00    +0.000 C 
BRANCH  14  15
ATOM     15  O1  UNL     1     116.358 112.508  84.235  0.00  0.00    +0.000 OA
ATOM     16  H14 UNL     1     116.720 113.330  83.814  0.00  0.00    +0.000 HD
ENDBRANCH  14  15
BRANCH  13  17
ATOM     17  O2  UNL     1     115.803 110.155  85.490  0.00  0.00    +0.000 OA
ATOM     18  H15 UNL     1     116.037 110.552  86.369  0.00  0.00    +0.000 HD
ENDBRANCH  13  17
BRANCH  12  19
ATOM     19  O3  UNL     1     119.038 108.936  84.568  0.00  0.00    +0.000 OA
BRANCH  19  20
ATOM     20  C13 UNL     1     118.445 108.811  83.291  0.00  0.00    +0.000 C 
BRANCH  20  21
ATOM     21  C14 UNL     1     119.517 108.970  82.218  0.00  0.00    +0.000 C 
BRANCH  21  22
ATOM     22  O4  UNL     1     120.102 110.241  82.293  0.00  0.00    +0.000 OA
ATOM     23  H20 UNL     1     119.581 110.832  81.688  0.00  0.00    +0.000 HD
ENDBRANCH  21  22
ENDBRANCH  20  21
ENDBRANCH  19  20
ENDBRANCH  12  19
ENDBRANCH   7  10
BRANCH   3  24
ATOM     24  N6  UNL     1     122.314 115.909  83.458  0.00  0.00    +0.000 N 
ATOM     25  H21 UNL     1     122.058 116.850  83.834  0.00  0.00    +0.000 HD
BRANCH  24  26
ATOM     26  C15 UNL     1     123.687 115.690  83.015  0.00  0.00    +0.000 C 
ATOM     27  C16 UNL     1     124.155 116.723  81.994  0.00  0.00    +0.000 C 
ATOM     28  C17 UNL     1     123.803 115.311  81.542  0.00  0.00    +0.000 C 
BRANCH  28  29
ATOM     29  C18 UNL     1     124.972 114.437  81.123  0.00  0.00    +0.000 A 
ATOM     30  C19 UNL     1     126.268 114.936  80.863  0.00  0.00    +0.000 A 
ATOM     31  C20 UNL     1     127.296 114.069  80.476  0.00  0.00    +0.000 A 
ATOM     32  C21 UNL     1     127.048 112.701  80.343  0.00  0.00    +0.000 A 
ATOM     33  C22 UNL     1     125.770 112.196  80.594  0.00  0.00    +0.000 A 
ATOM     34  C23 UNL     1     124.740 113.058  80.981  0.00  0.00    +0.000 A 
ATOM     35  F1  UNL     1     128.043 111.863  79.963  0.00  0.00    +0.000 F 
ATOM     36  F2  UNL     1     128.534 114.563  80.224  0.00  0.00    +0.000 F 
ENDBRANCH  28  29
ENDBRANCH  24  26
ENDBRANCH   3  24
BRANCH   1  37
ATOM     37  S1  UNL     1     119.366 113.097  80.292  0.00  0.00    +0.000 S 
BRANCH  37  38
ATOM     38  C3  UNL     1     117.947 112.116  80.894  0.00  0.00    +0.000 C 
BRANCH  38  40
ATOM     39  C1  UNL     1     116.389 111.009  79.226  0.00  0.00    +0.000 C 
ATOM     40  C2  UNL     1     116.733 112.292  79.979  0.00  0.00    +0.000 C 
ENDBRANCH  38  40
ENDBRANCH  37  38
ENDBRANCH   1  37
TORSDOF 13
ENDMDL
MODEL 3
REMARK VINA RESULT:    -2.238      2.075      3.892
REMARK INTER + INTRA:          -4.656
REMARK INTER:                  -4.654
REMARK INTRA:                  -0.002
REMARK UNBOUND:                -0.913
REMARK  Name = /home/prospero/dock/8WCC/ticagrelol/ticagrelol.pdb
REMARK  14 active torsions:
REMARK  status: ('A' for Active; 'I' for Inactive)
REMARK    1  A    between atoms: C1_1  and  C2_2
REMARK    2  A    between atoms: C2_2  and  C3_3
REMARK    3  A    between atoms: C3_3  and  S1_4
REMARK    4  A    between atoms: S1_4  and  C4_5
REMARK    5  A    between atoms: C5_7  and  N6_25
REMARK    6  A    between atoms: N3_11  and  C8_14
REMARK    7  A    between atoms: C10_16  and  O3_21
REMARK    8  A    between atoms: C11_17  and  O2_20
REMARK    9  A    between atoms: C12_18  and  O1_19
REMARK   10  A    between atoms: O3_21  and  C13_22
REMARK   11  A    between atoms: C13_22  and  C14_23
REMARK   12  A    between atoms: C14_23  and  O4_24
REMARK   13  A    between atoms: N6_25  and  C15_26
REMARK   14  A    between atoms: C17_28  and  C18_29
REMARK                            x       y       z     vdW  Elec       q    Type
REMARK                         _______ _______ _______ _____ _____    ______ ____
ROOT
ATOM      1  C4  UNL     1     118.780 111.426  83.556  0.00  0.00    +0.000 A 
ATOM      2  N1  UNL     1     118.253 110.981  84.744  0.00  0.00    +0.000 NA
ATOM      3  C5  UNL     1     118.456 111.650  85.919  0.00  0.00    +0.000 A 
ATOM      4  C6  UNL     1     119.224 112.814  85.857  0.00  0.00    +0.000 A 
ATOM      5  C7  UNL     1     119.729 113.229  84.677  0.00  0.00    +0.000 A 
ATOM      6  N2  UNL     1     119.527 112.569  83.513  0.00  0.00    +0.000 NA
ATOM      7  N3  UNL     1     120.400 114.368  84.882  0.00  0.00    +0.000 N 
ATOM      8  N4  UNL     1     120.290 114.640  86.181  0.00  0.00    +0.000 NA
ATOM      9  N5  UNL     1     119.576 113.702  86.808  0.00  0.00    +0.000 NA
ENDROOT
BRANCH   7  10
ATOM     10  C8  UNL     1     121.085 115.201  83.890  0.00  0.00    +0.000 C 
ATOM     11  C9  UNL     1     121.055 114.572  82.493  0.00  0.00    +0.000 C 
ATOM     12  C10 UNL     1     122.468 114.713  81.901  0.00  0.00    +0.000 C 
ATOM     13  C11 UNL     1     123.259 115.588  82.886  0.00  0.00    +0.000 C 
ATOM     14  C12 UNL     1     122.567 115.369  84.230  0.00  0.00    +0.000 C 
BRANCH  14  15
ATOM     15  O1  UNL     1     122.810 116.406  85.152  0.00  0.00    +0.000 OA
ATOM     16  H14 UNL     1     123.671 116.840  84.918  0.00  0.00    +0.000 HD
ENDBRANCH  14  15
BRANCH  13  17
ATOM     17  O2  UNL     1     123.176 116.938  82.505  0.00  0.00    +0.000 OA
ATOM     18  H15 UNL     1     122.651 117.399  83.209  0.00  0.00    +0.000 HD
ENDBRANCH  13  17
BRANCH  12  19
ATOM     19  O3  UNL     1     123.063 113.428  81.816  0.00  0.00    +0.000 OA
BRANCH  19  20
ATOM     20  C13 UNL     1     123.684 113.250  80.559  0.00  0.00    +0.000 C 
BRANCH  20  21
ATOM     21  C14 UNL     1     125.187 113.084  80.758  0.00  0.00    +0.000 C 
BRANCH  21  22
ATOM     22  O4  UNL     1     125.761 114.286  81.194  0.00  0.00    +0.000 OA
ATOM     23  H20 UNL     1     125.111 115.006  80.982  0.00  0.00    +0.000 HD
ENDBRANCH  21  22
ENDBRANCH  20  21
ENDBRANCH  19  20
ENDBRANCH  12  19
ENDBRANCH   7  10
BRANCH   3  24
ATOM     24  N6  UNL     1     117.883 111.143  87.135  0.00  0.00    +0.000 N 
ATOM     25  H21 UNL     1     118.080 111.660  88.023  0.00  0.00    +0.000 HD
BRANCH  24  26
ATOM     26  C15 UNL     1     117.105 109.910  87.210  0.00  0.00    +0.000 C 
ATOM     27  C16 UNL     1     115.777 109.998  86.465  0.00  0.00    +0.000 C 
ATOM     28  C17 UNL     1     115.801 110.054  87.988  0.00  0.00    +0.000 C 
BRANCH  28  29
ATOM     29  C18 UNL     1     115.263 108.829  88.706  0.00  0.00    +0.000 A 
ATOM     30  C19 UNL     1     114.312 107.948  88.145  0.00  0.00    +0.000 A 
ATOM     31  C20 UNL     1     113.859 106.840  88.871  0.00  0.00    +0.000 A 
ATOM     32  C21 UNL     1     114.343 106.598  90.158  0.00  0.00    +0.000 A 
ATOM     33  C22 UNL     1     115.281 107.464  90.725  0.00  0.00    +0.000 A 
ATOM     34  C23 UNL     1     115.737 108.572  90.005  0.00  0.00    +0.000 A 
ATOM     35  F1  UNL     1     113.899 105.528  90.863  0.00  0.00    +0.000 F 
ATOM     36  F2  UNL     1     112.941 106.005  88.321  0.00  0.00    +0.000 F 
ENDBRANCH  28  29
ENDBRANCH  24  26
ENDBRANCH   3  24
BRANCH   1  37
ATOM     37  S1  UNL     1     118.497 110.499  82.053  0.00  0.00    +0.000 S 
BRANCH  37  38
ATOM     38  C3  UNL     1     119.281 111.762  80.992  0.00  0.00    +0.000 C 
BRANCH  38  40
ATOM     39  C1  UNL     1     116.829 112.149  80.471  0.00  0.00    +0.000 C 
ATOM     40  C2  UNL     1     118.239 112.737  80.440  0.00  0.00    +0.000 C 
ENDBRANCH  38  40
ENDBRANCH  37  38
ENDBRANCH   1  37
TORSDOF 13
ENDMDL
