REMARK  Name = /home/prospero/dock/8WCC/ticagrelol/ticagrelol.pdb
REMARK  14 active torsions:
REMARK  status: ('A' for Active; 'I' for Inactive)
REMARK    1  A    between atoms: C1_1  and  C2_2
REMARK    2  A    between atoms: C2_2  and  C3_3
REMARK    3  A    between atoms: C3_3  and  S1_4
REMARK    4  A    between atoms: S1_4  and  C4_5
REMARK    5  A    between atoms: C5_7  and  N6_25
REMARK    6  A    between atoms: N3_11  and  C8_14
REMARK    7  A    between atoms: C10_16  and  O3_21
REMARK    8  A    between atoms: C11_17  and  O2_20
REMARK    9  A    between atoms: C12_18  and  O1_19
REMARK   10  A    between atoms: O3_21  and  C13_22
REMARK   11  A    between atoms: C13_22  and  C14_23
REMARK   12  A    between atoms: C14_23  and  O4_24
REMARK   13  A    between atoms: N6_25  and  C15_26
REMARK   14  A    between atoms: C17_28  and  C18_29
REMARK                            x       y       z     vdW  Elec       q    Type
REMARK                         _______ _______ _______ _____ _____    ______ ____
ROOT
ATOM      1  C4  UNL     1      -0.308   2.917   1.773  0.00  0.00    +0.000 A 
ATOM      2  N1  UNL     1      -1.538   2.322   1.913  0.00  0.00    +0.000 NA
ATOM      3  C5  UNL     1      -1.782   1.054   1.462  0.00  0.00    +0.000 A 
ATOM      4  C6  UNL     1      -0.718   0.387   0.852  0.00  0.00    +0.000 A 
ATOM      5  C7  UNL     1       0.480   0.995   0.728  0.00  0.00    +0.000 A 
ATOM      6  N2  UNL     1       0.723   2.248   1.176  0.00  0.00    +0.000 NA
ATOM      7  N3  UNL     1       1.326   0.144   0.136  0.00  0.00    +0.000 N 
ATOM      8  N4  UNL     1       0.638  -0.975  -0.086  0.00  0.00    +0.000 NA
ATOM      9  N5  UNL     1      -0.621  -0.856   0.340  0.00  0.00    +0.000 NA
ENDROOT
BRANCH   7  10
ATOM     10  C8  UNL     1       2.743   0.352  -0.173  0.00  0.00    +0.000 C 
ATOM     11  C9  UNL     1       3.057   0.070  -1.646  0.00  0.00    +0.000 C 
ATOM     12  C10 UNL     1       4.351  -0.760  -1.684  0.00  0.00    +0.000 C 
ATOM     13  C11 UNL     1       4.878  -0.796  -0.240  0.00  0.00    +0.000 C 
ATOM     14  C12 UNL     1       3.634  -0.602   0.624  0.00  0.00    +0.000 C 
BRANCH  14  15
ATOM     15  O1  UNL     1       3.929  -0.133   1.919  0.00  0.00    +0.000 OA
ATOM     16  H14 UNL     1       4.272   0.795   1.848  0.00  0.00    +0.000 HD
ENDBRANCH  14  15
BRANCH  13  17
ATOM     17  O2  UNL     1       5.789   0.254  -0.034  0.00  0.00    +0.000 OA
ATOM     18  H15 UNL     1       6.645  -0.029  -0.449  0.00  0.00    +0.000 HD
ENDBRANCH  13  17
BRANCH  12  19
ATOM     19  O3  UNL     1       4.043  -2.076  -2.114  0.00  0.00    +0.000 OA
BRANCH  19  20
ATOM     20  C13 UNL     1       5.134  -2.638  -2.815  0.00  0.00    +0.000 C 
BRANCH  20  21
ATOM     21  C14 UNL     1       4.867  -4.119  -3.061  0.00  0.00    +0.000 C 
BRANCH  21  22
ATOM     22  O4  UNL     1       4.708  -4.798  -1.845  0.00  0.00    +0.000 OA
ATOM     23  H20 UNL     1       5.619  -4.937  -1.474  0.00  0.00    +0.000 HD
ENDBRANCH  21  22
ENDBRANCH  20  21
ENDBRANCH  19  20
ENDBRANCH  12  19
ENDBRANCH   7  10
BRANCH   3  24
ATOM     24  N6  UNL     1      -3.086   0.476   1.633  0.00  0.00    +0.000 N 
ATOM     25  H21 UNL     1      -3.778   0.993   2.222  0.00  0.00    +0.000 HD
BRANCH  24  26
ATOM     26  C15 UNL     1      -3.472  -0.824   1.092  0.00  0.00    +0.000 C 
ATOM     27  C16 UNL     1      -3.753  -0.785  -0.407  0.00  0.00    +0.000 C 
ATOM     28  C17 UNL     1      -4.909  -0.874   0.583  0.00  0.00    +0.000 C 
BRANCH  28  29
ATOM     29  C18 UNL     1      -5.636  -2.206   0.637  0.00  0.00    +0.000 A 
ATOM     30  C19 UNL     1      -4.982  -3.457   0.587  0.00  0.00    +0.000 A 
ATOM     31  C20 UNL     1      -5.720  -4.645   0.637  0.00  0.00    +0.000 A 
ATOM     32  C21 UNL     1      -7.113  -4.602   0.736  0.00  0.00    +0.000 A 
ATOM     33  C22 UNL     1      -7.771  -3.371   0.783  0.00  0.00    +0.000 A 
ATOM     34  C23 UNL     1      -7.038  -2.182   0.733  0.00  0.00    +0.000 A 
ATOM     35  F1  UNL     1      -7.828  -5.753   0.779  0.00  0.00    +0.000 F 
ATOM     36  F2  UNL     1      -5.079  -5.839   0.582  0.00  0.00    +0.000 F 
ENDBRANCH  28  29
ENDBRANCH  24  26
ENDBRANCH   3  24
BRANCH   1  37
ATOM     37  S1  UNL     1      -0.053   4.585   2.366  0.00  0.00    +0.000 S 
BRANCH  37  38
ATOM     38  C3  UNL     1      -0.580   5.346   0.791  0.00  0.00    +0.000 C 
BRANCH  38  40
ATOM     39  C1  UNL     1       1.122   7.226   0.718  0.00  0.00    +0.000 C 
ATOM     40  C2  UNL     1      -0.358   6.860   0.814  0.00  0.00    +0.000 C 
ENDBRANCH  38  40
ENDBRANCH  37  38
ENDBRANCH   1  37
TORSDOF 13
