retinol
     RDKit          3D

 51 51  0  0  0  0  0  0  0  0999 V2000
   -3.4468    1.9793   -1.1617 C   0  0  0  0  0  0  0  0  0  0  0  0
   -3.9295    0.8087   -0.3363 C   0  0  0  0  0  0  0  0  0  0  0  0
   -3.1288    0.2350    0.6043 C   0  0  0  0  0  0  0  0  0  0  0  0
   -3.5914   -0.9465    1.4730 C   0  0  0  0  0  0  0  0  0  0  0  0
   -5.1331   -1.1283    1.4357 C   0  0  0  0  0  0  0  0  0  0  0  0
   -5.6863   -0.9810    0.0234 C   0  0  0  0  0  0  0  0  0  0  0  0
   -5.3813    0.4182   -0.5013 C   0  0  0  0  0  0  0  0  0  0  0  0
   -3.1830   -0.7184    2.9463 C   0  0  0  0  0  0  0  0  0  0  0  0
   -2.9030   -2.2347    0.9669 C   0  0  0  0  0  0  0  0  0  0  0  0
   -1.7219    0.6826    0.7443 C   0  0  0  0  0  0  0  0  0  0  0  0
   -0.7993    0.3584   -0.1681 C   0  0  0  0  0  0  0  0  0  0  0  0
    0.6213    0.7691   -0.0619 C   0  0  0  0  0  0  0  0  0  0  0  0
    1.5548   -0.0325   -0.6104 C   0  0  0  0  0  0  0  0  0  0  0  0
    3.0105    0.2270   -0.5524 C   0  0  0  0  0  0  0  0  0  0  0  0
    3.8740   -0.6000   -1.1536 C   0  0  0  0  0  0  0  0  0  0  0  0
    5.3452   -0.4007   -1.1312 C   0  0  0  0  0  0  0  0  0  0  0  0
    6.1326   -1.4829   -1.2949 C   0  0  0  0  0  0  0  0  0  0  0  0
    7.6335   -1.4544   -1.2482 C   0  0  0  0  0  0  0  0  0  0  0  0
    8.1311   -0.8702   -2.4219 O   0  0  0  0  0  0  0  0  0  0  0  0
    5.9271    0.9705   -0.8697 C   0  0  0  0  0  0  0  0  0  0  0  0
    0.9913    2.0621    0.6283 C   0  0  0  0  0  0  0  0  0  0  0  0
   -3.0469    2.7770   -0.4996 H   0  0  0  0  0  0  0  0  0  0  0  0
   -4.2737    2.4205   -1.7590 H   0  0  0  0  0  0  0  0  0  0  0  0
   -2.6549    1.6483   -1.8666 H   0  0  0  0  0  0  0  0  0  0  0  0
   -5.4210   -2.1250    1.8387 H   0  0  0  0  0  0  0  0  0  0  0  0
   -5.6251   -0.3653    2.0817 H   0  0  0  0  0  0  0  0  0  0  0  0
   -5.2524   -1.7469   -0.6543 H   0  0  0  0  0  0  0  0  0  0  0  0
   -6.7872   -1.1323    0.0403 H   0  0  0  0  0  0  0  0  0  0  0  0
   -6.0098    1.1603    0.0393 H   0  0  0  0  0  0  0  0  0  0  0  0
   -5.6615    0.4552   -1.5772 H   0  0  0  0  0  0  0  0  0  0  0  0
   -2.0785   -0.7077    3.0645 H   0  0  0  0  0  0  0  0  0  0  0  0
   -3.5831    0.2510    3.3152 H   0  0  0  0  0  0  0  0  0  0  0  0
   -3.5806   -1.5322    3.5921 H   0  0  0  0  0  0  0  0  0  0  0  0
   -1.8000   -2.1692    1.0907 H   0  0  0  0  0  0  0  0  0  0  0  0
   -3.2541   -3.1208    1.5382 H   0  0  0  0  0  0  0  0  0  0  0  0
   -3.1088   -2.4025   -0.1107 H   0  0  0  0  0  0  0  0  0  0  0  0
   -1.4493    1.2322    1.6358 H   0  0  0  0  0  0  0  0  0  0  0  0
   -1.0906   -0.2788   -0.9968 H   0  0  0  0  0  0  0  0  0  0  0  0
    1.2298   -0.9382   -1.1125 H   0  0  0  0  0  0  0  0  0  0  0  0
    3.3822    1.0737    0.0058 H   0  0  0  0  0  0  0  0  0  0  0  0
    3.4886   -1.4782   -1.6573 H   0  0  0  0  0  0  0  0  0  0  0  0
    5.6727   -2.4553   -1.4342 H   0  0  0  0  0  0  0  0  0  0  0  0
    8.0104   -2.5004   -1.1679 H   0  0  0  0  0  0  0  0  0  0  0  0
    7.9793   -0.8905   -0.3515 H   0  0  0  0  0  0  0  0  0  0  0  0
    9.1196   -0.8894   -2.3394 H   0  0  0  0  0  0  0  0  0  0  0  0
    6.8746    1.1286   -1.4243 H   0  0  0  0  0  0  0  0  0  0  0  0
    5.2340    1.7648   -1.2151 H   0  0  0  0  0  0  0  0  0  0  0  0
    6.1144    1.0954    0.2175 H   0  0  0  0  0  0  0  0  0  0  0  0
    1.6973    2.6489    0.0021 H   0  0  0  0  0  0  0  0  0  0  0  0
    1.4538    1.8465    1.6154 H   0  0  0  0  0  0  0  0  0  0  0  0
    0.1036    2.7107    0.7786 H   0  0  0  0  0  0  0  0  0  0  0  0
  1  2  1  0
  2  3  2  0
  3  4  1  0
  4  5  1  0
  5  6  1  0
  6  7  1  0
  4  8  1  0
  4  9  1  0
  3 10  1  0
 10 11  2  0
 11 12  1  0
 12 13  2  0
 13 14  1  0
 14 15  2  0
 15 16  1  0
 16 17  2  0
 17 18  1  0
 18 19  1  0
 16 20  1  0
 12 21  1  0
  7  2  1  0
  1 22  1  0
  1 23  1  0
  1 24  1  0
  5 25  1  0
  5 26  1  0
  6 27  1  0
  6 28  1  0
  7 29  1  0
  7 30  1  0
  8 31  1  0
  8 32  1  0
  8 33  1  0
  9 34  1  0
  9 35  1  0
  9 36  1  0
 10 37  1  0
 11 38  1  0
 13 39  1  0
 14 40  1  0
 15 41  1  0
 17 42  1  0
 18 43  1  0
 18 44  1  0
 19 45  1  0
 20 46  1  0
 20 47  1  0
 20 48  1  0
 21 49  1  0
 21 50  1  0
 21 51  1  0
M  END
$$$$
capsaicin
     RDKit          3D

 49 49  0  0  0  0  0  0  0  0999 V2000
   -3.5697   -1.9779   -0.1407 C   0  0  0  0  0  0  0  0  0  0  0  0
   -3.4438   -1.4749    1.3020 C   0  0  0  0  0  0  0  0  0  0  0  0
   -4.7540   -1.6657    2.0752 C   0  0  0  0  0  0  0  0  0  0  0  0
   -2.9827   -0.0356    1.3387 C   0  0  0  0  0  0  0  0  0  0  0  0
   -3.7032    0.9716    0.8159 C   0  0  0  0  0  0  0  0  0  0  0  0
   -3.1683    2.3773    0.7640 C   0  0  0  0  0  0  0  0  0  0  0  0
   -2.7940    2.7928   -0.6683 C   0  0  0  0  0  0  0  0  0  0  0  0
   -1.7734    1.8642   -1.3527 C   0  0  0  0  0  0  0  0  0  0  0  0
   -0.3861    1.9213   -0.7038 C   0  0  0  0  0  0  0  0  0  0  0  0
    0.5354    0.9478   -1.3724 C   0  0  0  0  0  0  0  0  0  0  0  0
    1.2862    1.3420   -2.3046 O   0  0  0  0  0  0  0  0  0  0  0  0
    0.5235   -0.4325   -0.9842 N   0  0  0  0  0  0  0  0  0  0  0  0
    1.3662   -1.4387   -1.6262 C   0  0  0  0  0  0  0  0  0  0  0  0
    2.8138   -1.2072   -1.2877 C   0  0  0  0  0  0  0  0  0  0  0  0
    3.2608   -1.3691    0.0330 C   0  0  0  0  0  0  0  0  0  0  0  0
    4.6118   -1.1436    0.3635 C   0  0  0  0  0  0  0  0  0  0  0  0
    5.5109   -0.7616   -0.6427 C   0  0  0  0  0  0  0  0  0  0  0  0
    5.0646   -0.5996   -1.9602 C   0  0  0  0  0  0  0  0  0  0  0  0
    3.7239   -0.8183   -2.2811 C   0  0  0  0  0  0  0  0  0  0  0  0
    6.8501   -0.5428   -0.3240 O   0  0  0  0  0  0  0  0  0  0  0  0
    5.0953   -1.2855    1.6729 O   0  0  0  0  0  0  0  0  0  0  0  0
    4.2939   -1.6389    2.7956 C   0  0  0  0  0  0  0  0  0  0  0  0
   -3.8239   -3.0620   -0.1458 H   0  0  0  0  0  0  0  0  0  0  0  0
   -2.6040   -1.8440   -0.6753 H   0  0  0  0  0  0  0  0  0  0  0  0
   -4.3640   -1.4252   -0.6891 H   0  0  0  0  0  0  0  0  0  0  0  0
   -2.6653   -2.0908    1.8039 H   0  0  0  0  0  0  0  0  0  0  0  0
   -5.5871   -1.1090    1.5936 H   0  0  0  0  0  0  0  0  0  0  0  0
   -5.0235   -2.7423    2.1042 H   0  0  0  0  0  0  0  0  0  0  0  0
   -4.6354   -1.3087    3.1219 H   0  0  0  0  0  0  0  0  0  0  0  0
   -2.0138    0.1743    1.7838 H   0  0  0  0  0  0  0  0  0  0  0  0
   -4.6609    0.7712    0.3456 H   0  0  0  0  0  0  0  0  0  0  0  0
   -3.9623    3.0614    1.1325 H   0  0  0  0  0  0  0  0  0  0  0  0
   -2.2986    2.5077    1.4440 H   0  0  0  0  0  0  0  0  0  0  0  0
   -3.7198    2.8113   -1.2858 H   0  0  0  0  0  0  0  0  0  0  0  0
   -2.3934    3.8293   -0.6493 H   0  0  0  0  0  0  0  0  0  0  0  0
   -1.6794    2.1788   -2.4148 H   0  0  0  0  0  0  0  0  0  0  0  0
   -2.1518    0.8203   -1.3566 H   0  0  0  0  0  0  0  0  0  0  0  0
    0.0275    2.9502   -0.7913 H   0  0  0  0  0  0  0  0  0  0  0  0
   -0.4445    1.6655    0.3754 H   0  0  0  0  0  0  0  0  0  0  0  0
   -0.1347   -0.7410   -0.2340 H   0  0  0  0  0  0  0  0  0  0  0  0
    1.0726   -2.4481   -1.2664 H   0  0  0  0  0  0  0  0  0  0  0  0
    1.1953   -1.4208   -2.7239 H   0  0  0  0  0  0  0  0  0  0  0  0
    2.5511   -1.6668    0.7926 H   0  0  0  0  0  0  0  0  0  0  0  0
    5.7572   -0.3027   -2.7375 H   0  0  0  0  0  0  0  0  0  0  0  0
    3.3974   -0.6845   -3.3042 H   0  0  0  0  0  0  0  0  0  0  0  0
    7.5250   -0.2725   -1.0309 H   0  0  0  0  0  0  0  0  0  0  0  0
    4.9314   -1.6574    3.7046 H   0  0  0  0  0  0  0  0  0  0  0  0
    3.8548   -2.6488    2.6496 H   0  0  0  0  0  0  0  0  0  0  0  0
    3.4890   -0.8871    2.9415 H   0  0  0  0  0  0  0  0  0  0  0  0
  1  2  1  0
  2  3  1  0
  2  4  1  0
  4  5  2  0
  5  6  1  0
  6  7  1  0
  7  8  1  0
  8  9  1  0
  9 10  1  0
 10 11  2  0
 10 12  1  0
 12 13  1  0
 13 14  1  0
 14 15  2  0
 15 16  1  0
 16 17  2  0
 17 18  1  0
 18 19  2  0
 17 20  1  0
 16 21  1  0
 21 22  1  0
 19 14  1  0
  1 23  1  0
  1 24  1  0
  1 25  1  0
  2 26  1  0
  3 27  1  0
  3 28  1  0
  3 29  1  0
  4 30  1  0
  5 31  1  0
  6 32  1  0
  6 33  1  0
  7 34  1  0
  7 35  1  0
  8 36  1  0
  8 37  1  0
  9 38  1  0
  9 39  1  0
 12 40  1  0
 13 41  1  0
 13 42  1  0
 15 43  1  0
 18 44  1  0
 19 45  1  0
 20 46  1  0
 22 47  1  0
 22 48  1  0
 22 49  1  0
M  END
$$$$
cholesterol
     RDKit          3D

 74 77  0  0  0  0  0  0  0  0999 V2000
    2.6961    2.0532    0.5607 C   0  0  0  0  0  0  0  0  0  0  0  0
    2.7665    0.7556   -0.2675 C   0  0  2  0  0  0  0  0  0  0  0  0
    3.9150    0.8872   -1.3207 C   0  0  0  0  0  0  0  0  0  0  0  0
    5.1541    0.0407   -0.9797 C   0  0  0  0  0  0  0  0  0  0  0  0
    5.9020    0.5670    0.2611 C   0  0  0  0  0  0  0  0  0  0  0  0
    7.2196   -0.1779    0.5806 C   0  0  0  0  0  0  0  0  0  0  0  0
    6.9975   -1.6704    0.8610 C   0  0  0  0  0  0  0  0  0  0  0  0
    8.2870    0.0233   -0.5039 C   0  0  0  0  0  0  0  0  0  0  0  0
    1.3968    0.4192   -0.9539 C   0  0  1  0  0  0  0  0  0  0  0  0
    1.4611   -0.9031   -1.7717 C   0  0  0  0  0  0  0  0  0  0  0  0
    0.0812   -1.5675   -1.6796 C   0  0  0  0  0  0  0  0  0  0  0  0
   -0.7909   -0.5057   -1.0329 C   0  0  2  0  0  0  0  0  0  0  0  0
    0.1391    0.2238   -0.0490 C   0  0  2  0  0  0  0  0  0  0  0  0
   -0.5943    1.5236    0.3654 C   0  0  0  0  0  0  0  0  0  0  0  0
   -1.9746    1.2231    0.9945 C   0  0  0  0  0  0  0  0  0  0  0  0
   -2.8926    0.3293    0.0952 C   0  0  1  0  0  0  0  0  0  0  0  0
   -2.1371   -0.9408   -0.4121 C   0  0  1  0  0  0  0  0  0  0  0  0
   -2.9891   -1.6849   -1.4529 C   0  0  0  0  0  0  0  0  0  0  0  0
   -4.4278   -1.8376   -1.0516 C   0  0  0  0  0  0  0  0  0  0  0  0
   -5.0365   -1.0421   -0.1481 C   0  0  0  0  0  0  0  0  0  0  0  0
   -4.2741   -0.0594    0.7550 C   0  0  2  0  0  0  0  0  0  0  0  0
   -5.1797    1.2063    0.9756 C   0  0  0  0  0  0  0  0  0  0  0  0
   -6.0430    1.5374   -0.2536 C   0  0  0  0  0  0  0  0  0  0  0  0
   -7.0342    0.3921   -0.5967 C   0  0  1  0  0  0  0  0  0  0  0  0
   -6.5470   -0.9896   -0.1121 C   0  0  0  0  0  0  0  0  0  0  0  0
   -8.2918    0.6542   -0.0301 O   0  0  0  0  0  0  0  0  0  0  0  0
   -4.0767   -0.7519    2.1283 C   0  0  0  0  0  0  0  0  0  0  0  0
    0.4932   -0.6356    1.2082 C   0  0  0  0  0  0  0  0  0  0  0  0
    2.1665    1.8903    1.5173 H   0  0  0  0  0  0  0  0  0  0  0  0
    2.1941    2.8598   -0.0148 H   0  0  0  0  0  0  0  0  0  0  0  0
    3.7126    2.4048    0.8343 H   0  0  0  0  0  0  0  0  0  0  0  0
    3.0130   -0.0732    0.4307 H   0  0  0  0  0  0  0  0  0  0  0  0
    4.2238    1.9475   -1.4584 H   0  0  0  0  0  0  0  0  0  0  0  0
    3.5746    0.5716   -2.3277 H   0  0  0  0  0  0  0  0  0  0  0  0
    5.8310    0.0685   -1.8590 H   0  0  0  0  0  0  0  0  0  0  0  0
    4.8408   -1.0139   -0.8261 H   0  0  0  0  0  0  0  0  0  0  0  0
    5.2390    0.4879    1.1492 H   0  0  0  0  0  0  0  0  0  0  0  0
    6.1298    1.6464    0.1191 H   0  0  0  0  0  0  0  0  0  0  0  0
    7.6198    0.2729    1.5160 H   0  0  0  0  0  0  0  0  0  0  0  0
    6.1972   -1.8056    1.6196 H   0  0  0  0  0  0  0  0  0  0  0  0
    7.9313   -2.1222    1.2587 H   0  0  0  0  0  0  0  0  0  0  0  0
    6.7157   -2.2146   -0.0649 H   0  0  0  0  0  0  0  0  0  0  0  0
    8.4055    1.1036   -0.7333 H   0  0  0  0  0  0  0  0  0  0  0  0
    9.2651   -0.3625   -0.1449 H   0  0  0  0  0  0  0  0  0  0  0  0
    8.0230   -0.5190   -1.4357 H   0  0  0  0  0  0  0  0  0  0  0  0
    1.1791    1.2432   -1.6732 H   0  0  0  0  0  0  0  0  0  0  0  0
    2.2307   -1.5963   -1.3666 H   0  0  0  0  0  0  0  0  0  0  0  0
    1.7015   -0.6890   -2.8358 H   0  0  0  0  0  0  0  0  0  0  0  0
    0.1244   -2.4802   -1.0458 H   0  0  0  0  0  0  0  0  0  0  0  0
   -0.2994   -1.8421   -2.6879 H   0  0  0  0  0  0  0  0  0  0  0  0
   -1.0483    0.2046   -1.8588 H   0  0  0  0  0  0  0  0  0  0  0  0
   -0.0031    2.0979    1.1033 H   0  0  0  0  0  0  0  0  0  0  0  0
   -0.7385    2.1822   -0.5195 H   0  0  0  0  0  0  0  0  0  0  0  0
   -2.4534    2.2034    1.1810 H   0  0  0  0  0  0  0  0  0  0  0  0
   -1.8151    0.7581    1.9857 H   0  0  0  0  0  0  0  0  0  0  0  0
   -3.1254    0.9443   -0.8039 H   0  0  0  0  0  0  0  0  0  0  0  0
   -1.9475   -1.6494    0.4157 H   0  0  0  0  0  0  0  0  0  0  0  0
   -2.5626   -2.6962   -1.6270 H   0  0  0  0  0  0  0  0  0  0  0  0
   -2.9724   -1.1375   -2.4205 H   0  0  0  0  0  0  0  0  0  0  0  0
   -5.0308   -2.4895   -1.6777 H   0  0  0  0  0  0  0  0  0  0  0  0
   -4.5935    2.1016    1.2503 H   0  0  0  0  0  0  0  0  0  0  0  0
   -5.8771    1.0421    1.8276 H   0  0  0  0  0  0  0  0  0  0  0  0
   -6.5969    2.4838   -0.0706 H   0  0  0  0  0  0  0  0  0  0  0  0
   -5.3757    1.7190   -1.1239 H   0  0  0  0  0  0  0  0  0  0  0  0
   -7.1336    0.3439   -1.7069 H   0  0  0  0  0  0  0  0  0  0  0  0
   -7.0127   -1.7875   -0.7318 H   0  0  0  0  0  0  0  0  0  0  0  0
   -6.8800   -1.1618    0.9341 H   0  0  0  0  0  0  0  0  0  0  0  0
   -8.7191    1.3550   -0.5890 H   0  0  0  0  0  0  0  0  0  0  0  0
   -3.6817   -0.0433    2.8849 H   0  0  0  0  0  0  0  0  0  0  0  0
   -5.0472   -1.1233    2.5217 H   0  0  0  0  0  0  0  0  0  0  0  0
   -3.4008   -1.6266    2.0634 H   0  0  0  0  0  0  0  0  0  0  0  0
    1.0626   -1.5480    0.9348 H   0  0  0  0  0  0  0  0  0  0  0  0
    1.1105   -0.0566    1.9218 H   0  0  0  0  0  0  0  0  0  0  0  0
   -0.3964   -0.9638    1.7762 H   0  0  0  0  0  0  0  0  0  0  0  0
  1  2  1  0
  2  3  1  0
  3  4  1  0
  4  5  1  0
  5  6  1  0
  6  7  1  0
  6  8  1  0
  2  9  1  0
  9 10  1  0
 10 11  1  0
 11 12  1  0
 12 13  1  0
 13 14  1  0
 14 15  1  0
 15 16  1  0
 16 17  1  0
 17 18  1  0
 18 19  1  0
 19 20  2  0
 20 21  1  0
 21 22  1  0
 22 23  1  0
 23 24  1  0
 24 25  1  0
 24 26  1  0
 21 27  1  1
 13 28  1  1
 13  9  1  0
 17 12  1  0
 21 16  1  0
 25 20  1  0
  1 29  1  0
  1 30  1  0
  1 31  1  0
  2 32  1  1
  3 33  1  0
  3 34  1  0
  4 35  1  0
  4 36  1  0
  5 37  1  0
  5 38  1  0
  6 39  1  0
  7 40  1  0
  7 41  1  0
  7 42  1  0
  8 43  1  0
  8 44  1  0
  8 45  1  0
  9 46  1  6
 10 47  1  0
 10 48  1  0
 11 49  1  0
 11 50  1  0
 12 51  1  6
 14 52  1  0
 14 53  1  0
 15 54  1  0
 15 55  1  0
 16 56  1  6
 17 57  1  1
 18 58  1  0
 18 59  1  0
 19 60  1  0
 22 61  1  0
 22 62  1  0
 23 63  1  0
 23 64  1  0
 24 65  1  6
 25 66  1  0
 25 67  1  0
 26 68  1  0
 27 69  1  0
 27 70  1  0
 27 71  1  0
 28 72  1  0
 28 73  1  0
 28 74  1  0
M  END
$$$$
aspirin
     RDKit          3D

 21 21  0  0  0  0  0  0  0  0999 V2000
    3.6399    0.7375    0.0901 C   0  0  0  0  0  0  0  0  0  0  0  0
    2.3744    0.0414    0.4588 C   0  0  0  0  0  0  0  0  0  0  0  0
    2.3828   -0.8107    1.3882 O   0  0  0  0  0  0  0  0  0  0  0  0
    1.1772    0.4255   -0.1587 O   0  0  0  0  0  0  0  0  0  0  0  0
   -0.0340   -0.2829   -0.0949 C   0  0  0  0  0  0  0  0  0  0  0  0
   -0.0439   -1.6889   -0.0057 C   0  0  0  0  0  0  0  0  0  0  0  0
   -1.2493   -2.3892    0.0434 C   0  0  0  0  0  0  0  0  0  0  0  0
   -2.4591   -1.7007   -0.0066 C   0  0  0  0  0  0  0  0  0  0  0  0
   -2.4692   -0.3093   -0.1148 C   0  0  0  0  0  0  0  0  0  0  0  0
   -1.2643    0.4179   -0.1663 C   0  0  0  0  0  0  0  0  0  0  0  0
   -1.3215    1.8986   -0.2829 C   0  0  0  0  0  0  0  0  0  0  0  0
   -0.2674    2.5891   -0.3080 O   0  0  0  0  0  0  0  0  0  0  0  0
   -2.5524    2.5452   -0.3653 O   0  0  0  0  0  0  0  0  0  0  0  0
    3.5819    1.0958   -0.9590 H   0  0  0  0  0  0  0  0  0  0  0  0
    3.7942    1.6056    0.7639 H   0  0  0  0  0  0  0  0  0  0  0  0
    4.5005    0.0419    0.1840 H   0  0  0  0  0  0  0  0  0  0  0  0
    0.8802   -2.2508   -0.0042 H   0  0  0  0  0  0  0  0  0  0  0  0
   -1.2450   -3.4695    0.1111 H   0  0  0  0  0  0  0  0  0  0  0  0
   -3.3930   -2.2469    0.0303 H   0  0  0  0  0  0  0  0  0  0  0  0
   -3.4253    0.1967   -0.1587 H   0  0  0  0  0  0  0  0  0  0  0  0
   -2.6067    3.5538   -0.4447 H   0  0  0  0  0  0  0  0  0  0  0  0
  1  2  1  0
  2  3  2  0
  2  4  1  0
  4  5  1  0
  5  6  2  0
  6  7  1  0
  7  8  2  0
  8  9  1  0
  9 10  2  0
 10 11  1  0
 11 12  2  0
 11 13  1  0
 10  5  1  0
  1 14  1  0
  1 15  1  0
  1 16  1  0
  6 17  1  0
  7 18  1  0
  8 19  1  0
  9 20  1  0
 13 21  1  0
M  END
$$$$
ticagrelol
     RDKit          3D

 64 68  0  0  0  0  0  0  0  0999 V2000
    0.5504    5.5243   -0.9901 C   0  0  0  0  0  0  0  0  0  0  0  0
   -0.2678    4.6383   -0.0515 C   0  0  0  0  0  0  0  0  0  0  0  0
   -1.5195    4.0679   -0.7301 C   0  0  0  0  0  0  0  0  0  0  0  0
   -1.1069    2.9025   -2.0804 S   0  0  0  0  0  0  0  0  0  0  0  0
   -0.7854    1.5125   -0.9982 C   0  0  0  0  0  0  0  0  0  0  0  0
   -1.8144    0.6750   -0.6408 N   0  0  0  0  0  0  0  0  0  0  0  0
   -1.6089   -0.4067    0.1739 C   0  0  0  0  0  0  0  0  0  0  0  0
   -0.3143   -0.6207    0.6274 C   0  0  0  0  0  0  0  0  0  0  0  0
    0.6770    0.2173    0.2672 C   0  0  0  0  0  0  0  0  0  0  0  0
    0.4858    1.2818   -0.5469 N   0  0  0  0  0  0  0  0  0  0  0  0
    1.8136   -0.2148    0.8238 N   0  0  0  0  0  0  0  0  0  0  0  0
    1.5035   -1.3241    1.4940 N   0  0  0  0  0  0  0  0  0  0  0  0
    0.1995   -1.5954    1.4004 N   0  0  0  0  0  0  0  0  0  0  0  0
    3.1586    0.3364    0.6380 C   0  0  2  0  0  0  0  0  0  0  0  0
    3.8797   -0.3339   -0.5212 C   0  0  0  0  0  0  0  0  0  0  0  0
    5.3793   -0.2437   -0.1969 C   0  0  1  0  0  0  0  0  0  0  0  0
    5.4816    0.2064    1.2753 C   0  0  2  0  0  0  0  0  0  0  0  0
    4.0656    0.1030    1.8420 C   0  0  1  0  0  0  0  0  0  0  0  0
    3.8402    1.0585    2.8468 O   0  0  0  0  0  0  0  0  0  0  0  0
    5.9349    1.5356    1.3456 O   0  0  0  0  0  0  0  0  0  0  0  0
    5.9956   -1.5121   -0.3442 O   0  0  0  0  0  0  0  0  0  0  0  0
    6.4350   -1.6969   -1.6747 C   0  0  0  0  0  0  0  0  0  0  0  0
    6.8854   -3.1425   -1.8657 C   0  0  0  0  0  0  0  0  0  0  0  0
    7.9055   -3.4672   -0.9584 O   0  0  0  0  0  0  0  0  0  0  0  0
   -2.6879   -1.2750    0.5410 N   0  0  0  0  0  0  0  0  0  0  0  0
   -4.0396   -1.0663    0.0321 C   0  0  2  0  0  0  0  0  0  0  0  0
   -4.7512    0.1012    0.7086 C   0  0  0  0  0  0  0  0  0  0  0  0
   -5.1315   -1.3322    1.0615 C   0  0  1  0  0  0  0  0  0  0  0  0
   -6.4817   -1.8071    0.5562 C   0  0  0  0  0  0  0  0  0  0  0  0
   -6.9820   -1.5154   -0.7333 C   0  0  0  0  0  0  0  0  0  0  0  0
   -8.2373   -1.9886   -1.1308 C   0  0  0  0  0  0  0  0  0  0  0  0
   -9.0081   -2.7542   -0.2522 C   0  0  0  0  0  0  0  0  0  0  0  0
   -8.5266   -3.0452    1.0260 C   0  0  0  0  0  0  0  0  0  0  0  0
   -7.2732   -2.5750    1.4276 C   0  0  0  0  0  0  0  0  0  0  0  0
  -10.2240   -3.2130   -0.6382 F   0  0  0  0  0  0  0  0  0  0  0  0
   -8.7084   -1.6994   -2.3706 F   0  0  0  0  0  0  0  0  0  0  0  0
   -0.0763    6.3538   -1.3836 H   0  0  0  0  0  0  0  0  0  0  0  0
    0.9497    4.9309   -1.8391 H   0  0  0  0  0  0  0  0  0  0  0  0
    1.4067    5.9600   -0.4341 H   0  0  0  0  0  0  0  0  0  0  0  0
    0.3716    3.8160    0.3331 H   0  0  0  0  0  0  0  0  0  0  0  0
   -0.5854    5.2502    0.8196 H   0  0  0  0  0  0  0  0  0  0  0  0
   -2.1534    3.5580    0.0274 H   0  0  0  0  0  0  0  0  0  0  0  0
   -2.1208    4.8996   -1.1563 H   0  0  0  0  0  0  0  0  0  0  0  0
    3.0917    1.4318    0.4400 H   0  0  0  0  0  0  0  0  0  0  0  0
    3.6437    0.1790   -1.4794 H   0  0  0  0  0  0  0  0  0  0  0  0
    3.5653   -1.3991   -0.6003 H   0  0  0  0  0  0  0  0  0  0  0  0
    5.8543    0.5345   -0.8443 H   0  0  0  0  0  0  0  0  0  0  0  0
    6.1642   -0.4549    1.8611 H   0  0  0  0  0  0  0  0  0  0  0  0
    3.9306   -0.9276    2.2492 H   0  0  0  0  0  0  0  0  0  0  0  0
    2.9938    0.7975    3.2973 H   0  0  0  0  0  0  0  0  0  0  0  0
    6.9155    1.5090    1.1894 H   0  0  0  0  0  0  0  0  0  0  0  0
    7.2923   -1.0225   -1.8930 H   0  0  0  0  0  0  0  0  0  0  0  0
    5.6165   -1.4952   -2.4025 H   0  0  0  0  0  0  0  0  0  0  0  0
    7.2321   -3.2953   -2.9129 H   0  0  0  0  0  0  0  0  0  0  0  0
    6.0221   -3.8205   -1.6907 H   0  0  0  0  0  0  0  0  0  0  0  0
    8.7398   -3.0619   -1.3127 H   0  0  0  0  0  0  0  0  0  0  0  0
   -2.4932   -2.1260    1.1142 H   0  0  0  0  0  0  0  0  0  0  0  0
   -4.2171   -1.1972   -1.0541 H   0  0  0  0  0  0  0  0  0  0  0  0
   -5.4552    0.6523    0.0519 H   0  0  0  0  0  0  0  0  0  0  0  0
   -4.1639    0.6207    1.4951 H   0  0  0  0  0  0  0  0  0  0  0  0
   -4.7839   -1.6571    2.0661 H   0  0  0  0  0  0  0  0  0  0  0  0
   -6.4189   -0.9183   -1.4361 H   0  0  0  0  0  0  0  0  0  0  0  0
   -9.1242   -3.6371    1.7075 H   0  0  0  0  0  0  0  0  0  0  0  0
   -6.9199   -2.8119    2.4240 H   0  0  0  0  0  0  0  0  0  0  0  0
  1  2  1  0
  2  3  1  0
  3  4  1  0
  4  5  1  0
  5  6  2  0
  6  7  1  0
  7  8  2  0
  8  9  1  0
  9 10  2  0
  9 11  1  0
 11 12  1  0
 12 13  2  0
 11 14  1  0
 14 15  1  0
 15 16  1  0
 16 17  1  0
 17 18  1  0
 18 19  1  0
 17 20  1  0
 16 21  1  0
 21 22  1  0
 22 23  1  0
 23 24  1  0
  7 25  1  0
 25 26  1  0
 26 27  1  0
 27 28  1  0
 28 29  1  0
 29 30  2  0
 30 31  1  0
 31 32  2  0
 32 33  1  0
 33 34  2  0
 32 35  1  0
 31 36  1  0
 10  5  1  0
 13  8  1  0
 18 14  1  0
 28 26  1  0
 34 29  1  0
  1 37  1  0
  1 38  1  0
  1 39  1  0
  2 40  1  0
  2 41  1  0
  3 42  1  0
  3 43  1  0
 14 44  1  6
 15 45  1  0
 15 46  1  0
 16 47  1  6
 17 48  1  1
 18 49  1  1
 19 50  1  0
 20 51  1  0
 22 52  1  0
 22 53  1  0
 23 54  1  0
 23 55  1  0
 24 56  1  0
 25 57  1  0
 26 58  1  6
 27 59  1  0
 27 60  1  0
 28 61  1  1
 30 62  1  0
 33 63  1  0
 34 64  1  0
M  END
$$$$
valsartan
     RDKit          3D

 61 63  0  0  0  0  0  0  0  0999 V2000
   -2.3576    1.4541    4.6504 C   0  0  0  0  0  0  0  0  0  0  0  0
   -2.4767    1.8760    3.1885 C   0  0  0  0  0  0  0  0  0  0  0  0
   -2.8150    0.6792    2.2928 C   0  0  0  0  0  0  0  0  0  0  0  0
   -2.9422    1.1122    0.8271 C   0  0  0  0  0  0  0  0  0  0  0  0
   -3.2610   -0.0644   -0.0659 C   0  0  0  0  0  0  0  0  0  0  0  0
   -4.2991   -0.7327    0.1877 O   0  0  0  0  0  0  0  0  0  0  0  0
   -2.4288   -0.4263   -1.1998 N   0  0  0  0  0  0  0  0  0  0  0  0
   -1.6808    0.6160   -1.9274 C   0  0  0  0  0  0  0  0  0  0  0  0
   -0.1946    0.5409   -1.6617 C   0  0  0  0  0  0  0  0  0  0  0  0
    0.3134    0.1591   -0.4065 C   0  0  0  0  0  0  0  0  0  0  0  0
    1.6895    0.1605   -0.1685 C   0  0  0  0  0  0  0  0  0  0  0  0
    2.5810    0.5827   -1.1661 C   0  0  0  0  0  0  0  0  0  0  0  0
    2.0785    0.9669   -2.4185 C   0  0  0  0  0  0  0  0  0  0  0  0
    0.7023    0.9539   -2.6604 C   0  0  0  0  0  0  0  0  0  0  0  0
    4.0394    0.6018   -0.9107 C   0  0  0  0  0  0  0  0  0  0  0  0
    4.8681   -0.1735   -1.7415 C   0  0  0  0  0  0  0  0  0  0  0  0
    6.2403   -0.2545   -1.5021 C   0  0  0  0  0  0  0  0  0  0  0  0
    6.8037    0.4321   -0.4286 C   0  0  0  0  0  0  0  0  0  0  0  0
    5.9999    1.2161    0.4011 C   0  0  0  0  0  0  0  0  0  0  0  0
    4.6167    1.3292    0.1662 C   0  0  0  0  0  0  0  0  0  0  0  0
    3.8289    2.2445    1.0277 C   0  0  0  0  0  0  0  0  0  0  0  0
    4.1805    2.5922    2.2818 N   0  0  0  0  0  0  0  0  0  0  0  0
    3.2357    3.4342    2.6604 N   0  0  0  0  0  0  0  0  0  0  0  0
    2.3511    3.6116    1.6947 N   0  0  0  0  0  0  0  0  0  0  0  0
    2.6999    2.8794    0.6496 N   0  0  0  0  0  0  0  0  0  0  0  0
   -2.4502   -1.7924   -1.7785 C   0  0  1  0  0  0  0  0  0  0  0  0
   -1.6850   -2.8285   -0.8916 C   0  0  0  0  0  0  0  0  0  0  0  0
   -1.4926   -4.1706   -1.6181 C   0  0  0  0  0  0  0  0  0  0  0  0
   -2.2768   -3.0574    0.5083 C   0  0  0  0  0  0  0  0  0  0  0  0
   -3.8495   -2.1706   -2.2110 C   0  0  0  0  0  0  0  0  0  0  0  0
   -4.4460   -3.1701   -1.7264 O   0  0  0  0  0  0  0  0  0  0  0  0
   -4.4953   -1.3829   -3.1604 O   0  0  0  0  0  0  0  0  0  0  0  0
   -3.3138    1.0152    5.0060 H   0  0  0  0  0  0  0  0  0  0  0  0
   -2.1195    2.3409    5.2739 H   0  0  0  0  0  0  0  0  0  0  0  0
   -1.5436    0.7069    4.7708 H   0  0  0  0  0  0  0  0  0  0  0  0
   -3.2715    2.6491    3.0996 H   0  0  0  0  0  0  0  0  0  0  0  0
   -1.5111    2.3239    2.8651 H   0  0  0  0  0  0  0  0  0  0  0  0
   -2.0082   -0.0812    2.3832 H   0  0  0  0  0  0  0  0  0  0  0  0
   -3.7722    0.2240    2.6328 H   0  0  0  0  0  0  0  0  0  0  0  0
   -3.7575    1.8605    0.7277 H   0  0  0  0  0  0  0  0  0  0  0  0
   -1.9946    1.6027    0.5320 H   0  0  0  0  0  0  0  0  0  0  0  0
   -2.0514    1.6324   -1.6803 H   0  0  0  0  0  0  0  0  0  0  0  0
   -1.8749    0.5049   -3.0174 H   0  0  0  0  0  0  0  0  0  0  0  0
   -0.3470   -0.1514    0.3905 H   0  0  0  0  0  0  0  0  0  0  0  0
    2.0596   -0.1531    0.8000 H   0  0  0  0  0  0  0  0  0  0  0  0
    2.7517    1.2970   -3.2010 H   0  0  0  0  0  0  0  0  0  0  0  0
    0.3354    1.2779   -3.6266 H   0  0  0  0  0  0  0  0  0  0  0  0
    4.4457   -0.7362   -2.5657 H   0  0  0  0  0  0  0  0  0  0  0  0
    6.8671   -0.8591   -2.1452 H   0  0  0  0  0  0  0  0  0  0  0  0
    7.8683    0.3643   -0.2438 H   0  0  0  0  0  0  0  0  0  0  0  0
    6.4671    1.7580    1.2143 H   0  0  0  0  0  0  0  0  0  0  0  0
    3.1954    3.8996    3.5939 H   0  0  0  0  0  0  0  0  0  0  0  0
   -1.8752   -1.7692   -2.7317 H   0  0  0  0  0  0  0  0  0  0  0  0
   -0.6625   -2.4234   -0.7366 H   0  0  0  0  0  0  0  0  0  0  0  0
   -1.0461   -4.0081   -2.6220 H   0  0  0  0  0  0  0  0  0  0  0  0
   -2.4542   -4.7106   -1.7353 H   0  0  0  0  0  0  0  0  0  0  0  0
   -0.7979   -4.8188   -1.0415 H   0  0  0  0  0  0  0  0  0  0  0  0
   -1.7223   -3.8675    1.0290 H   0  0  0  0  0  0  0  0  0  0  0  0
   -3.3447   -3.3462    0.4677 H   0  0  0  0  0  0  0  0  0  0  0  0
   -2.1625   -2.1496    1.1318 H   0  0  0  0  0  0  0  0  0  0  0  0
   -5.4378   -1.6012   -3.4639 H   0  0  0  0  0  0  0  0  0  0  0  0
  1  2  1  0
  2  3  1  0
  3  4  1  0
  4  5  1  0
  5  6  2  0
  5  7  1  0
  7  8  1  0
  8  9  1  0
  9 10  2  0
 10 11  1  0
 11 12  2  0
 12 13  1  0
 13 14  2  0
 12 15  1  0
 15 16  2  0
 16 17  1  0
 17 18  2  0
 18 19  1  0
 19 20  2  0
 20 21  1  0
 21 22  2  0
 22 23  1  0
 23 24  1  0
 24 25  2  0
  7 26  1  0
 26 27  1  0
 27 28  1  0
 27 29  1  0
 26 30  1  0
 30 31  2  0
 30 32  1  0
 14  9  1  0
 20 15  1  0
 25 21  1  0
  1 33  1  0
  1 34  1  0
  1 35  1  0
  2 36  1  0
  2 37  1  0
  3 38  1  0
  3 39  1  0
  4 40  1  0
  4 41  1  0
  8 42  1  0
  8 43  1  0
 10 44  1  0
 11 45  1  0
 13 46  1  0
 14 47  1  0
 16 48  1  0
 17 49  1  0
 18 50  1  0
 19 51  1  0
 23 52  1  0
 26 53  1  6
 27 54  1  0
 28 55  1  0
 28 56  1  0
 28 57  1  0
 29 58  1  0
 29 59  1  0
 29 60  1  0
 32 61  1  0
M  END
$$$$
rivaroxaban
     RDKit          3D

 47 50  0  0  0  0  0  0  0  0999 V2000
   -6.1154   -1.0613    0.2865 C   0  0  0  0  0  0  0  0  0  0  0  0
   -7.5545   -1.0624   -0.2391 C   0  0  0  0  0  0  0  0  0  0  0  0
   -8.0727    0.2531   -0.2384 O   0  0  0  0  0  0  0  0  0  0  0  0
   -7.4497    1.0164   -1.2544 C   0  0  0  0  0  0  0  0  0  0  0  0
   -5.9548    1.0280   -1.0996 C   0  0  0  0  0  0  0  0  0  0  0  0
   -5.2806    1.9383   -1.6536 O   0  0  0  0  0  0  0  0  0  0  0  0
   -5.3030   -0.0511   -0.4029 N   0  0  0  0  0  0  0  0  0  0  0  0
   -3.8778   -0.0487   -0.2064 C   0  0  0  0  0  0  0  0  0  0  0  0
   -3.1107   -1.1588   -0.5864 C   0  0  0  0  0  0  0  0  0  0  0  0
   -1.7270   -1.1640   -0.3884 C   0  0  0  0  0  0  0  0  0  0  0  0
   -1.0862   -0.0615    0.2048 C   0  0  0  0  0  0  0  0  0  0  0  0
   -1.8581    1.0534    0.5746 C   0  0  0  0  0  0  0  0  0  0  0  0
   -3.2414    1.0572    0.3764 C   0  0  0  0  0  0  0  0  0  0  0  0
    0.3417   -0.0529    0.4033 N   0  0  0  0  0  0  0  0  0  0  0  0
    1.1960    1.1306    0.3678 C   0  0  0  0  0  0  0  0  0  0  0  0
    2.6511    0.5921    0.4793 C   0  0  1  0  0  0  0  0  0  0  0  0
    2.5190   -0.8150    0.6555 O   0  0  0  0  0  0  0  0  0  0  0  0
    1.1910   -1.1668    0.6101 C   0  0  0  0  0  0  0  0  0  0  0  0
    0.7843   -2.3438    0.7954 O   0  0  0  0  0  0  0  0  0  0  0  0
    3.4728    0.8877   -0.7820 C   0  0  0  0  0  0  0  0  0  0  0  0
    4.8160    0.3221   -0.6662 N   0  0  0  0  0  0  0  0  0  0  0  0
    5.8239    0.9025    0.1774 C   0  0  0  0  0  0  0  0  0  0  0  0
    5.5975    1.9959    0.7632 O   0  0  0  0  0  0  0  0  0  0  0  0
    7.1315    0.2481    0.3688 C   0  0  0  0  0  0  0  0  0  0  0  0
    7.5203   -1.0066   -0.1004 C   0  0  0  0  0  0  0  0  0  0  0  0
    8.8280   -1.3532    0.2609 C   0  0  0  0  0  0  0  0  0  0  0  0
    9.4637   -0.3777    1.0129 C   0  0  0  0  0  0  0  0  0  0  0  0
    8.4148    0.9137    1.2359 S   0  0  0  0  0  0  0  0  0  0  0  0
   11.0956   -0.4708    1.6407 Cl  0  0  0  0  0  0  0  0  0  0  0  0
   -6.1262   -0.8331    1.3743 H   0  0  0  0  0  0  0  0  0  0  0  0
   -5.6801   -2.0734    0.1454 H   0  0  0  0  0  0  0  0  0  0  0  0
   -8.1795   -1.6905    0.4301 H   0  0  0  0  0  0  0  0  0  0  0  0
   -7.6000   -1.5210   -1.2542 H   0  0  0  0  0  0  0  0  0  0  0  0
   -7.8259    2.0589   -1.1872 H   0  0  0  0  0  0  0  0  0  0  0  0
   -7.7227    0.6272   -2.2605 H   0  0  0  0  0  0  0  0  0  0  0  0
   -3.5819   -2.0125   -1.0564 H   0  0  0  0  0  0  0  0  0  0  0  0
   -1.1596   -2.0193   -0.7275 H   0  0  0  0  0  0  0  0  0  0  0  0
   -1.3950    1.9176    1.0315 H   0  0  0  0  0  0  0  0  0  0  0  0
   -3.8199    1.9178    0.6879 H   0  0  0  0  0  0  0  0  0  0  0  0
    0.9703    1.7842    1.2375 H   0  0  0  0  0  0  0  0  0  0  0  0
    1.0221    1.6955   -0.5743 H   0  0  0  0  0  0  0  0  0  0  0  0
    3.1476    1.0292    1.3727 H   0  0  0  0  0  0  0  0  0  0  0  0
    3.5402    1.9848   -0.9491 H   0  0  0  0  0  0  0  0  0  0  0  0
    2.9636    0.4394   -1.6637 H   0  0  0  0  0  0  0  0  0  0  0  0
    5.0517   -0.4928   -1.2739 H   0  0  0  0  0  0  0  0  0  0  0  0
    6.8874   -1.6663   -0.6768 H   0  0  0  0  0  0  0  0  0  0  0  0
    9.2926   -2.2903   -0.0157 H   0  0  0  0  0  0  0  0  0  0  0  0
  1  2  1  0
  2  3  1  0
  3  4  1  0
  4  5  1  0
  5  6  2  0
  5  7  1  0
  7  8  1  0
  8  9  2  0
  9 10  1  0
 10 11  2  0
 11 12  1  0
 12 13  2  0
 11 14  1  0
 14 15  1  0
 15 16  1  0
 16 17  1  0
 17 18  1  0
 18 19  2  0
 16 20  1  0
 20 21  1  0
 21 22  1  0
 22 23  2  0
 22 24  1  0
 24 25  2  0
 25 26  1  0
 26 27  2  0
 27 28  1  0
 27 29  1  0
  7  1  1  0
 13  8  1  0
 18 14  1  0
 28 24  1  0
  1 30  1  0
  1 31  1  0
  2 32  1  0
  2 33  1  0
  4 34  1  0
  4 35  1  0
  9 36  1  0
 10 37  1  0
 12 38  1  0
 13 39  1  0
 15 40  1  0
 15 41  1  0
 16 42  1  1
 20 43  1  0
 20 44  1  0
 21 45  1  0
 25 46  1  0
 26 47  1  0
M  END
$$$$
