
  Mrv2110 10032416322D          

 20 23  0  0  0  0            999 V2000
  -18.6561    5.4459    0.0000 N   0  0  0  0  0  0  0  0  0  0  0  0
  -19.3453    4.9924    0.0000 C   0  0  0  0  0  0  0  0  0  0  0  0
  -18.7043    6.2695    0.0000 C   0  0  0  0  0  0  0  0  0  0  0  0
  -20.1173    5.2834    0.0000 S   0  0  0  0  0  0  0  0  0  0  0  0
  -19.3836    4.1683    0.0000 C   0  0  0  0  0  0  0  0  0  0  0  0
  -20.6326    4.6391    0.0000 C   0  0  0  0  0  0  0  0  0  0  0  0
  -20.1791    3.9500    0.0000 C   0  0  0  0  0  0  0  0  0  0  0  0
  -21.4562    4.5910    0.0000 C   0  0  0  0  0  0  0  0  0  0  0  0
  -20.5493    3.2126    0.0000 C   0  0  0  0  0  0  0  0  0  0  0  0
  -21.8263    3.8537    0.0000 C   0  0  0  0  0  0  0  0  0  0  0  0
  -21.8019    5.3401    0.0000 C   0  0  0  0  0  0  0  0  0  0  0  0
  -21.3729    3.1645    0.0000 C   0  0  0  0  0  0  0  0  0  0  0  0
  -22.6336    3.6834    0.0000 C   0  0  0  0  0  0  0  0  0  0  0  0
  -22.6031    5.5369    0.0000 C   0  0  0  0  0  0  0  0  0  0  0  0
  -23.2700    4.2083    0.0000 C   0  0  0  0  0  0  0  0  0  0  0  0
  -23.2565    5.0331    0.0000 N   0  0  0  0  0  0  0  0  0  0  0  0
  -18.0663    6.7925    0.0000 O   0  0  0  0  0  0  0  0  0  0  0  0
  -19.3989    6.7146    0.0000 C   0  0  0  0  0  0  0  0  0  0  0  0
  -18.3665    7.5609    0.0000 C   0  0  0  0  0  0  0  0  0  0  0  0
  -19.1901    7.5128    0.0000 C   0  0  0  0  0  0  0  0  0  0  0  0
  1  2  1  0  0  0  0
  1  3  1  0  0  0  0
  4  2  1  0  0  0  0
  2  5  2  0  0  0  0
  6  4  1  0  0  0  0
  5  7  1  0  0  0  0
  7  6  2  0  0  0  0
  6  8  1  0  0  0  0
  9  7  1  0  0  0  0
  8 10  2  0  0  0  0
  8 11  1  0  0  0  0
 12  9  2  0  0  0  0
 12 10  1  0  0  0  0
 10 13  1  0  0  0  0
 11 14  1  0  0  0  0
 13 15  1  0  0  0  0
 14 16  1  0  0  0  0
 15 16  1  0  0  0  0
 17  3  1  0  0  0  0
 18  3  2  0  0  0  0
 17 19  1  0  0  0  0
 20 18  1  0  0  0  0
 19 20  2  0  0  0  0
M  END
> <Product (SMILES)>
c1coc(Nc2cc3ccc4c(c3s2)CCNCC4)c1

> <Code name>
0_0_0_0

$$$$

  Mrv2110 10032416322D          

 20 23  0  0  0  0            999 V2000
  -18.0200    5.4738    0.0000 N   0  0  0  0  0  0  0  0  0  0  0  0
  -18.7092    5.0203    0.0000 C   0  0  0  0  0  0  0  0  0  0  0  0
  -18.0681    6.2973    0.0000 C   0  0  0  0  0  0  0  0  0  0  0  0
  -19.4811    5.3113    0.0000 S   0  0  0  0  0  0  0  0  0  0  0  0
  -18.7474    4.1962    0.0000 C   0  0  0  0  0  0  0  0  0  0  0  0
  -19.9965    4.6670    0.0000 C   0  0  0  0  0  0  0  0  0  0  0  0
  -19.5430    3.9778    0.0000 C   0  0  0  0  0  0  0  0  0  0  0  0
  -20.8201    4.6189    0.0000 C   0  0  0  0  0  0  0  0  0  0  0  0
  -19.9131    3.2405    0.0000 C   0  0  0  0  0  0  0  0  0  0  0  0
  -21.1902    3.8816    0.0000 C   0  0  0  0  0  0  0  0  0  0  0  0
  -21.1657    5.3680    0.0000 C   0  0  0  0  0  0  0  0  0  0  0  0
  -20.7367    3.1924    0.0000 C   0  0  0  0  0  0  0  0  0  0  0  0
  -21.9974    3.7112    0.0000 C   0  0  0  0  0  0  0  0  0  0  0  0
  -21.9669    5.5647    0.0000 C   0  0  0  0  0  0  0  0  0  0  0  0
  -22.6339    4.2361    0.0000 C   0  0  0  0  0  0  0  0  0  0  0  0
  -22.6203    5.0610    0.0000 N   0  0  0  0  0  0  0  0  0  0  0  0
  -17.4301    6.8204    0.0000 S   0  0  0  0  0  0  0  0  0  0  0  0
  -18.7627    6.7425    0.0000 C   0  0  0  0  0  0  0  0  0  0  0  0
  -17.7304    7.5888    0.0000 C   0  0  0  0  0  0  0  0  0  0  0  0
  -18.5540    7.5407    0.0000 C   0  0  0  0  0  0  0  0  0  0  0  0
  1  2  1  0  0  0  0
  1  3  1  0  0  0  0
  4  2  1  0  0  0  0
  2  5  2  0  0  0  0
  6  4  1  0  0  0  0
  5  7  1  0  0  0  0
  7  6  2  0  0  0  0
  6  8  1  0  0  0  0
  9  7  1  0  0  0  0
  8 10  2  0  0  0  0
  8 11  1  0  0  0  0
 12  9  2  0  0  0  0
 12 10  1  0  0  0  0
 10 13  1  0  0  0  0
 11 14  1  0  0  0  0
 13 15  1  0  0  0  0
 14 16  1  0  0  0  0
 15 16  1  0  0  0  0
 17  3  1  0  0  0  0
 18  3  2  0  0  0  0
 17 19  1  0  0  0  0
 20 18  1  0  0  0  0
 19 20  2  0  0  0  0
M  END
> <Product (SMILES)>
c1csc(Nc2cc3ccc4c(c3s2)CCNCC4)c1

> <Code name>
0_1_0_0

$$$$

  Mrv2110 10032416322D          

 20 23  0  0  0  0            999 V2000
  -16.0272    6.1470    0.0000 N   0  0  0  0  0  0  0  0  0  0  0  0
  -16.7164    5.6936    0.0000 C   0  0  0  0  0  0  0  0  0  0  0  0
  -16.0753    6.9706    0.0000 C   0  0  0  0  0  0  0  0  0  0  0  0
  -17.4884    5.9846    0.0000 S   0  0  0  0  0  0  0  0  0  0  0  0
  -16.7546    4.8694    0.0000 C   0  0  0  0  0  0  0  0  0  0  0  0
  -18.0037    5.3403    0.0000 C   0  0  0  0  0  0  0  0  0  0  0  0
  -17.5502    4.6511    0.0000 C   0  0  0  0  0  0  0  0  0  0  0  0
  -18.8273    5.2922    0.0000 C   0  0  0  0  0  0  0  0  0  0  0  0
  -17.9203    3.9138    0.0000 C   0  0  0  0  0  0  0  0  0  0  0  0
  -19.1974    4.5549    0.0000 C   0  0  0  0  0  0  0  0  0  0  0  0
  -19.1730    6.0413    0.0000 C   0  0  0  0  0  0  0  0  0  0  0  0
  -18.7439    3.8657    0.0000 C   0  0  0  0  0  0  0  0  0  0  0  0
  -20.0046    4.3845    0.0000 C   0  0  0  0  0  0  0  0  0  0  0  0
  -19.9742    6.2380    0.0000 C   0  0  0  0  0  0  0  0  0  0  0  0
  -20.6411    4.9094    0.0000 C   0  0  0  0  0  0  0  0  0  0  0  0
  -20.6275    5.7343    0.0000 N   0  0  0  0  0  0  0  0  0  0  0  0
  -15.4373    7.4937    0.0000 O   0  0  0  0  0  0  0  0  0  0  0  0
  -16.7699    7.4158    0.0000 N   0  0  0  0  0  0  0  0  0  0  0  0
  -15.7376    8.2621    0.0000 C   0  0  0  0  0  0  0  0  0  0  0  0
  -16.5612    8.2139    0.0000 C   0  0  0  0  0  0  0  0  0  0  0  0
  1  2  1  0  0  0  0
  1  3  1  0  0  0  0
  4  2  1  0  0  0  0
  2  5  2  0  0  0  0
  6  4  1  0  0  0  0
  5  7  1  0  0  0  0
  7  6  2  0  0  0  0
  6  8  1  0  0  0  0
  9  7  1  0  0  0  0
  8 10  2  0  0  0  0
  8 11  1  0  0  0  0
 12  9  2  0  0  0  0
 12 10  1  0  0  0  0
 10 13  1  0  0  0  0
 11 14  1  0  0  0  0
 13 15  1  0  0  0  0
 14 16  1  0  0  0  0
 15 16  1  0  0  0  0
 17  3  1  0  0  0  0
 18  3  2  0  0  0  0
 17 19  1  0  0  0  0
 20 18  1  0  0  0  0
 19 20  2  0  0  0  0
M  END
> <Product (SMILES)>
c1coc(Nc2cc3ccc4c(c3s2)CCNCC4)n1

> <Code name>
0_3_0_0

$$$$

  Mrv2110 10032416322D          

 20 23  0  0  0  0            999 V2000
  -15.3911    6.1749    0.0000 N   0  0  0  0  0  0  0  0  0  0  0  0
  -16.0802    5.7215    0.0000 C   0  0  0  0  0  0  0  0  0  0  0  0
  -15.4392    6.9985    0.0000 C   0  0  0  0  0  0  0  0  0  0  0  0
  -16.8522    6.0125    0.0000 S   0  0  0  0  0  0  0  0  0  0  0  0
  -16.1185    4.8974    0.0000 C   0  0  0  0  0  0  0  0  0  0  0  0
  -17.3675    5.3682    0.0000 C   0  0  0  0  0  0  0  0  0  0  0  0
  -16.9141    4.6790    0.0000 C   0  0  0  0  0  0  0  0  0  0  0  0
  -18.1911    5.3201    0.0000 C   0  0  0  0  0  0  0  0  0  0  0  0
  -17.2842    3.9417    0.0000 C   0  0  0  0  0  0  0  0  0  0  0  0
  -18.5612    4.5828    0.0000 C   0  0  0  0  0  0  0  0  0  0  0  0
  -18.5368    6.0692    0.0000 C   0  0  0  0  0  0  0  0  0  0  0  0
  -18.1078    3.8936    0.0000 C   0  0  0  0  0  0  0  0  0  0  0  0
  -19.3685    4.4124    0.0000 C   0  0  0  0  0  0  0  0  0  0  0  0
  -19.3380    6.2659    0.0000 C   0  0  0  0  0  0  0  0  0  0  0  0
  -20.0049    4.9373    0.0000 C   0  0  0  0  0  0  0  0  0  0  0  0
  -19.9914    5.7622    0.0000 N   0  0  0  0  0  0  0  0  0  0  0  0
  -14.8012    7.5216    0.0000 S   0  0  0  0  0  0  0  0  0  0  0  0
  -16.1338    7.4437    0.0000 N   0  0  0  0  0  0  0  0  0  0  0  0
  -15.1014    8.2900    0.0000 C   0  0  0  0  0  0  0  0  0  0  0  0
  -15.9250    8.2419    0.0000 C   0  0  0  0  0  0  0  0  0  0  0  0
  1  2  1  0  0  0  0
  1  3  1  0  0  0  0
  4  2  1  0  0  0  0
  2  5  2  0  0  0  0
  6  4  1  0  0  0  0
  5  7  1  0  0  0  0
  7  6  2  0  0  0  0
  6  8  1  0  0  0  0
  9  7  1  0  0  0  0
  8 10  2  0  0  0  0
  8 11  1  0  0  0  0
 12  9  2  0  0  0  0
 12 10  1  0  0  0  0
 10 13  1  0  0  0  0
 11 14  1  0  0  0  0
 13 15  1  0  0  0  0
 14 16  1  0  0  0  0
 15 16  1  0  0  0  0
 17  3  1  0  0  0  0
 18  3  2  0  0  0  0
 17 19  1  0  0  0  0
 20 18  1  0  0  0  0
 19 20  2  0  0  0  0
M  END
> <Product (SMILES)>
c1csc(Nc2cc3ccc4c(c3s2)CCNCC4)n1

> <Code name>
0_4_0_0

$$$$

  Mrv2110 10032416322D          

 20 23  0  0  0  0            999 V2000
  -17.6670    6.1664    0.0000 N   0  0  0  0  0  0  0  0  0  0  0  0
  -18.3561    5.7130    0.0000 C   0  0  0  0  0  0  0  0  0  0  0  0
  -17.7151    6.9900    0.0000 C   0  0  0  0  0  0  0  0  0  0  0  0
  -19.1281    6.0040    0.0000 S   0  0  0  0  0  0  0  0  0  0  0  0
  -18.3944    4.8889    0.0000 C   0  0  0  0  0  0  0  0  0  0  0  0
  -19.6434    5.3597    0.0000 C   0  0  0  0  0  0  0  0  0  0  0  0
  -19.1900    4.6705    0.0000 C   0  0  0  0  0  0  0  0  0  0  0  0
  -20.4670    5.3116    0.0000 C   0  0  0  0  0  0  0  0  0  0  0  0
  -19.5601    3.9332    0.0000 C   0  0  0  0  0  0  0  0  0  0  0  0
  -20.8371    4.5743    0.0000 C   0  0  0  0  0  0  0  0  0  0  0  0
  -20.8127    6.0607    0.0000 C   0  0  0  0  0  0  0  0  0  0  0  0
  -20.3837    3.8851    0.0000 C   0  0  0  0  0  0  0  0  0  0  0  0
  -21.6444    4.4039    0.0000 C   0  0  0  0  0  0  0  0  0  0  0  0
  -21.6139    6.2574    0.0000 C   0  0  0  0  0  0  0  0  0  0  0  0
  -22.2808    4.9288    0.0000 C   0  0  0  0  0  0  0  0  0  0  0  0
  -22.2673    5.7537    0.0000 N   0  0  0  0  0  0  0  0  0  0  0  0
  -17.0771    7.5131    0.0000 N   0  0  0  0  0  0  0  0  0  0  0  0
  -18.4097    7.4352    0.0000 C   0  0  0  0  0  0  0  0  0  0  0  0
  -17.3773    8.2815    0.0000 N   0  0  0  0  0  0  0  0  0  0  0  0
  -18.2009    8.2334    0.0000 C   0  0  0  0  0  0  0  0  0  0  0  0
  1  2  1  0  0  0  0
  1  3  1  0  0  0  0
  4  2  1  0  0  0  0
  2  5  2  0  0  0  0
  6  4  1  0  0  0  0
  5  7  1  0  0  0  0
  7  6  2  0  0  0  0
  6  8  1  0  0  0  0
  9  7  1  0  0  0  0
  8 10  2  0  0  0  0
  8 11  1  0  0  0  0
 12  9  2  0  0  0  0
 12 10  1  0  0  0  0
 10 13  1  0  0  0  0
 11 14  1  0  0  0  0
 13 15  1  0  0  0  0
 14 16  1  0  0  0  0
 15 16  1  0  0  0  0
 17  3  1  0  0  0  0
 18  3  2  0  0  0  0
 17 19  1  0  0  0  0
 20 18  1  0  0  0  0
 19 20  2  0  0  0  0
M  END
> <Product (SMILES)>
c1cc(Nc2cc3ccc4c(c3s2)CCNCC4)[nH]n1

> <Code name>
0_5_0_0

$$$$

  Mrv2110 10032416322D          

 20 23  0  0  0  0            999 V2000
  -14.9335    4.6906    0.0000 N   0  0  0  0  0  0  0  0  0  0  0  0
  -15.6226    4.2371    0.0000 C   0  0  0  0  0  0  0  0  0  0  0  0
  -14.9816    5.5142    0.0000 C   0  0  0  0  0  0  0  0  0  0  0  0
  -16.3946    4.5281    0.0000 S   0  0  0  0  0  0  0  0  0  0  0  0
  -15.6609    3.4130    0.0000 C   0  0  0  0  0  0  0  0  0  0  0  0
  -16.9099    3.8839    0.0000 C   0  0  0  0  0  0  0  0  0  0  0  0
  -16.4565    3.1947    0.0000 C   0  0  0  0  0  0  0  0  0  0  0  0
  -17.7335    3.8357    0.0000 C   0  0  0  0  0  0  0  0  0  0  0  0
  -16.8266    2.4573    0.0000 C   0  0  0  0  0  0  0  0  0  0  0  0
  -18.1036    3.0984    0.0000 C   0  0  0  0  0  0  0  0  0  0  0  0
  -18.0792    4.5848    0.0000 C   0  0  0  0  0  0  0  0  0  0  0  0
  -17.6502    2.4092    0.0000 C   0  0  0  0  0  0  0  0  0  0  0  0
  -18.9109    2.9281    0.0000 C   0  0  0  0  0  0  0  0  0  0  0  0
  -18.8804    4.7816    0.0000 C   0  0  0  0  0  0  0  0  0  0  0  0
  -19.5473    3.4530    0.0000 C   0  0  0  0  0  0  0  0  0  0  0  0
  -19.5338    4.2779    0.0000 N   0  0  0  0  0  0  0  0  0  0  0  0
  -14.3436    6.0372    0.0000 N   0  0  0  0  0  0  0  0  0  0  0  0
  -15.6762    5.9593    0.0000 N   0  0  0  0  0  0  0  0  0  0  0  0
  -14.6438    6.8056    0.0000 C   0  0  0  0  0  0  0  0  0  0  0  0
  -15.4674    6.7575    0.0000 C   0  0  0  0  0  0  0  0  0  0  0  0
  1  2  1  0  0  0  0
  1  3  1  0  0  0  0
  4  2  1  0  0  0  0
  2  5  2  0  0  0  0
  6  4  1  0  0  0  0
  5  7  1  0  0  0  0
  7  6  2  0  0  0  0
  6  8  1  0  0  0  0
  9  7  1  0  0  0  0
  8 10  2  0  0  0  0
  8 11  1  0  0  0  0
 12  9  2  0  0  0  0
 12 10  1  0  0  0  0
 10 13  1  0  0  0  0
 11 14  1  0  0  0  0
 13 15  1  0  0  0  0
 14 16  1  0  0  0  0
 15 16  1  0  0  0  0
 17  3  1  0  0  0  0
 18  3  2  0  0  0  0
 17 19  1  0  0  0  0
 20 18  1  0  0  0  0
 19 20  2  0  0  0  0
M  END
> <Product (SMILES)>
c1c[nH]c(Nc2cc3ccc4c(c3s2)CCNCC4)n1

> <Code name>
0_6_0_0

$$$$

  Mrv2110 10032416322D          

 21 24  0  0  0  0            999 V2000
  -19.0030    3.8394    0.0000 N   0  0  0  0  0  0  0  0  0  0  0  0
  -19.6921    3.3860    0.0000 C   0  0  0  0  0  0  0  0  0  0  0  0
  -19.0511    4.6630    0.0000 C   0  0  0  0  0  0  0  0  0  0  0  0
  -20.4641    3.6770    0.0000 S   0  0  0  0  0  0  0  0  0  0  0  0
  -19.7304    2.5618    0.0000 C   0  0  0  0  0  0  0  0  0  0  0  0
  -20.9794    3.0327    0.0000 C   0  0  0  0  0  0  0  0  0  0  0  0
  -20.5260    2.3435    0.0000 C   0  0  0  0  0  0  0  0  0  0  0  0
  -21.8030    2.9846    0.0000 C   0  0  0  0  0  0  0  0  0  0  0  0
  -20.8961    1.6062    0.0000 C   0  0  0  0  0  0  0  0  0  0  0  0
  -22.1731    2.2473    0.0000 C   0  0  0  0  0  0  0  0  0  0  0  0
  -22.1487    3.7337    0.0000 C   0  0  0  0  0  0  0  0  0  0  0  0
  -21.7197    1.5581    0.0000 C   0  0  0  0  0  0  0  0  0  0  0  0
  -22.9804    2.0769    0.0000 C   0  0  0  0  0  0  0  0  0  0  0  0
  -22.9499    3.9304    0.0000 C   0  0  0  0  0  0  0  0  0  0  0  0
  -23.6168    2.6018    0.0000 C   0  0  0  0  0  0  0  0  0  0  0  0
  -23.6033    3.4267    0.0000 N   0  0  0  0  0  0  0  0  0  0  0  0
  -18.3619    5.1165    0.0000 N   0  0  0  0  0  0  0  0  0  0  0  0
  -19.7884    5.0331    0.0000 C   0  0  0  0  0  0  0  0  0  0  0  0
  -18.4100    5.9401    0.0000 N   0  0  0  0  0  0  0  0  0  0  0  0
  -19.8365    5.8567    0.0000 C   0  0  0  0  0  0  0  0  0  0  0  0
  -19.1473    6.3102    0.0000 C   0  0  0  0  0  0  0  0  0  0  0  0
  1  2  1  0  0  0  0
  1  3  1  0  0  0  0
  4  2  1  0  0  0  0
  2  5  2  0  0  0  0
  6  4  1  0  0  0  0
  5  7  1  0  0  0  0
  7  6  2  0  0  0  0
  6  8  1  0  0  0  0
  9  7  1  0  0  0  0
  8 10  2  0  0  0  0
  8 11  1  0  0  0  0
 12  9  2  0  0  0  0
 12 10  1  0  0  0  0
 10 13  1  0  0  0  0
 11 14  1  0  0  0  0
 13 15  1  0  0  0  0
 14 16  1  0  0  0  0
 15 16  1  0  0  0  0
 17  3  2  0  0  0  0
 18  3  1  0  0  0  0
 17 19  1  0  0  0  0
 20 18  2  0  0  0  0
 19 21  2  0  0  0  0
 21 20  1  0  0  0  0
M  END
> <Product (SMILES)>
c1cnnc(Nc2cc3ccc4c(c3s2)CCNCC4)c1

> <Code name>
0_7_0_0

$$$$

  Mrv2110 10032416322D          

 21 24  0  0  0  0            999 V2000
  -17.6892    3.8139    0.0000 N   0  0  0  0  0  0  0  0  0  0  0  0
  -18.3784    3.3604    0.0000 C   0  0  0  0  0  0  0  0  0  0  0  0
  -17.7373    4.6375    0.0000 C   0  0  0  0  0  0  0  0  0  0  0  0
  -19.1503    3.6515    0.0000 S   0  0  0  0  0  0  0  0  0  0  0  0
  -18.4166    2.5363    0.0000 C   0  0  0  0  0  0  0  0  0  0  0  0
  -19.6657    3.0072    0.0000 C   0  0  0  0  0  0  0  0  0  0  0  0
  -19.2122    2.3180    0.0000 C   0  0  0  0  0  0  0  0  0  0  0  0
  -20.4893    2.9591    0.0000 C   0  0  0  0  0  0  0  0  0  0  0  0
  -19.5823    1.5807    0.0000 C   0  0  0  0  0  0  0  0  0  0  0  0
  -20.8594    2.2218    0.0000 C   0  0  0  0  0  0  0  0  0  0  0  0
  -20.8350    3.7082    0.0000 C   0  0  0  0  0  0  0  0  0  0  0  0
  -20.4059    1.5326    0.0000 C   0  0  0  0  0  0  0  0  0  0  0  0
  -21.6666    2.0514    0.0000 C   0  0  0  0  0  0  0  0  0  0  0  0
  -21.6362    3.9049    0.0000 C   0  0  0  0  0  0  0  0  0  0  0  0
  -22.3031    2.5763    0.0000 C   0  0  0  0  0  0  0  0  0  0  0  0
  -22.2895    3.4012    0.0000 N   0  0  0  0  0  0  0  0  0  0  0  0
  -17.0481    5.0910    0.0000 N   0  0  0  0  0  0  0  0  0  0  0  0
  -18.4746    5.0076    0.0000 N   0  0  0  0  0  0  0  0  0  0  0  0
  -17.0963    5.9146    0.0000 C   0  0  0  0  0  0  0  0  0  0  0  0
  -18.5228    5.8312    0.0000 C   0  0  0  0  0  0  0  0  0  0  0  0
  -17.8336    6.2847    0.0000 C   0  0  0  0  0  0  0  0  0  0  0  0
  1  2  1  0  0  0  0
  1  3  1  0  0  0  0
  4  2  1  0  0  0  0
  2  5  2  0  0  0  0
  6  4  1  0  0  0  0
  5  7  1  0  0  0  0
  7  6  2  0  0  0  0
  6  8  1  0  0  0  0
  9  7  1  0  0  0  0
  8 10  2  0  0  0  0
  8 11  1  0  0  0  0
 12  9  2  0  0  0  0
 12 10  1  0  0  0  0
 10 13  1  0  0  0  0
 11 14  1  0  0  0  0
 13 15  1  0  0  0  0
 14 16  1  0  0  0  0
 15 16  1  0  0  0  0
 17  3  2  0  0  0  0
 18  3  1  0  0  0  0
 17 19  1  0  0  0  0
 20 18  2  0  0  0  0
 19 21  2  0  0  0  0
 21 20  1  0  0  0  0
M  END
> <Product (SMILES)>
c1cnc(Nc2cc3ccc4c(c3s2)CCNCC4)nc1

> <Code name>
0_8_0_0

$$$$

  Mrv2110 10032416322D          

 21 24  0  0  0  0            999 V2000
  -16.4392    3.7438    0.0000 N   0  0  0  0  0  0  0  0  0  0  0  0
  -17.1284    3.2903    0.0000 C   0  0  0  0  0  0  0  0  0  0  0  0
  -16.4873    4.5674    0.0000 C   0  0  0  0  0  0  0  0  0  0  0  0
  -17.9003    3.5813    0.0000 S   0  0  0  0  0  0  0  0  0  0  0  0
  -17.1666    2.4662    0.0000 C   0  0  0  0  0  0  0  0  0  0  0  0
  -18.4157    2.9371    0.0000 C   0  0  0  0  0  0  0  0  0  0  0  0
  -17.9622    2.2479    0.0000 C   0  0  0  0  0  0  0  0  0  0  0  0
  -19.2392    2.8889    0.0000 C   0  0  0  0  0  0  0  0  0  0  0  0
  -18.3323    1.5106    0.0000 C   0  0  0  0  0  0  0  0  0  0  0  0
  -19.6094    2.1516    0.0000 C   0  0  0  0  0  0  0  0  0  0  0  0
  -19.5849    3.6380    0.0000 C   0  0  0  0  0  0  0  0  0  0  0  0
  -19.1559    1.4624    0.0000 C   0  0  0  0  0  0  0  0  0  0  0  0
  -20.4166    1.9813    0.0000 C   0  0  0  0  0  0  0  0  0  0  0  0
  -20.3861    3.8348    0.0000 C   0  0  0  0  0  0  0  0  0  0  0  0
  -21.0531    2.5062    0.0000 C   0  0  0  0  0  0  0  0  0  0  0  0
  -21.0395    3.3311    0.0000 N   0  0  0  0  0  0  0  0  0  0  0  0
  -15.7981    5.0209    0.0000 N   0  0  0  0  0  0  0  0  0  0  0  0
  -17.2246    4.9375    0.0000 C   0  0  0  0  0  0  0  0  0  0  0  0
  -15.8462    5.8444    0.0000 C   0  0  0  0  0  0  0  0  0  0  0  0
  -17.2728    5.7611    0.0000 C   0  0  0  0  0  0  0  0  0  0  0  0
  -16.5836    6.2146    0.0000 C   0  0  0  0  0  0  0  0  0  0  0  0
  1  2  1  0  0  0  0
  1  3  1  0  0  0  0
  4  2  1  0  0  0  0
  2  5  2  0  0  0  0
  6  4  1  0  0  0  0
  5  7  1  0  0  0  0
  7  6  2  0  0  0  0
  6  8  1  0  0  0  0
  9  7  1  0  0  0  0
  8 10  2  0  0  0  0
  8 11  1  0  0  0  0
 12  9  2  0  0  0  0
 12 10  1  0  0  0  0
 10 13  1  0  0  0  0
 11 14  1  0  0  0  0
 13 15  1  0  0  0  0
 14 16  1  0  0  0  0
 15 16  1  0  0  0  0
 17  3  2  0  0  0  0
 18  3  1  0  0  0  0
 17 19  1  0  0  0  0
 20 18  2  0  0  0  0
 19 21  2  0  0  0  0
 21 20  1  0  0  0  0
M  END
> <Product (SMILES)>
c1ccc(Nc2cc3ccc4c(c3s2)CCNCC4)nc1

> <Code name>
0_9_0_0

$$$$

  Mrv2110 10032416322D          

 21 24  0  0  0  0            999 V2000
  -15.3996    3.8394    0.0000 N   0  0  0  0  0  0  0  0  0  0  0  0
  -16.0888    3.3860    0.0000 C   0  0  0  0  0  0  0  0  0  0  0  0
  -15.4478    4.6630    0.0000 C   0  0  0  0  0  0  0  0  0  0  0  0
  -16.8608    3.6770    0.0000 S   0  0  0  0  0  0  0  0  0  0  0  0
  -16.1271    2.5618    0.0000 C   0  0  0  0  0  0  0  0  0  0  0  0
  -17.3761    3.0327    0.0000 C   0  0  0  0  0  0  0  0  0  0  0  0
  -16.9226    2.3435    0.0000 C   0  0  0  0  0  0  0  0  0  0  0  0
  -18.1997    2.9846    0.0000 C   0  0  0  0  0  0  0  0  0  0  0  0
  -17.2928    1.6062    0.0000 C   0  0  0  0  0  0  0  0  0  0  0  0
  -18.5698    2.2473    0.0000 C   0  0  0  0  0  0  0  0  0  0  0  0
  -18.5454    3.7337    0.0000 C   0  0  0  0  0  0  0  0  0  0  0  0
  -18.1164    1.5581    0.0000 C   0  0  0  0  0  0  0  0  0  0  0  0
  -19.3771    2.0769    0.0000 C   0  0  0  0  0  0  0  0  0  0  0  0
  -19.3466    3.9304    0.0000 C   0  0  0  0  0  0  0  0  0  0  0  0
  -20.0135    2.6018    0.0000 C   0  0  0  0  0  0  0  0  0  0  0  0
  -20.0000    3.4267    0.0000 N   0  0  0  0  0  0  0  0  0  0  0  0
  -14.7586    5.1165    0.0000 C   0  0  0  0  0  0  0  0  0  0  0  0
  -16.1851    5.0331    0.0000 C   0  0  0  0  0  0  0  0  0  0  0  0
  -14.8067    5.9401    0.0000 C   0  0  0  0  0  0  0  0  0  0  0  0
  -16.2332    5.8567    0.0000 C   0  0  0  0  0  0  0  0  0  0  0  0
  -15.5440    6.3102    0.0000 C   0  0  0  0  0  0  0  0  0  0  0  0
  1  2  1  0  0  0  0
  1  3  1  0  0  0  0
  4  2  1  0  0  0  0
  2  5  2  0  0  0  0
  6  4  1  0  0  0  0
  5  7  1  0  0  0  0
  7  6  2  0  0  0  0
  6  8  1  0  0  0  0
  9  7  1  0  0  0  0
  8 10  2  0  0  0  0
  8 11  1  0  0  0  0
 12  9  2  0  0  0  0
 12 10  1  0  0  0  0
 10 13  1  0  0  0  0
 11 14  1  0  0  0  0
 13 15  1  0  0  0  0
 14 16  1  0  0  0  0
 15 16  1  0  0  0  0
 17  3  2  0  0  0  0
 18  3  1  0  0  0  0
 17 19  1  0  0  0  0
 20 18  2  0  0  0  0
 19 21  2  0  0  0  0
 21 20  1  0  0  0  0
M  END
> <Product (SMILES)>
c1ccc(Nc2cc3ccc4c(c3s2)CCNCC4)cc1

> <Code name>
0_10_0_0

$$$$

  Mrv2110 10032416322D          

 20 23  0  0  0  0            999 V2000
  -14.2943    4.3728    0.0000 N   0  0  0  0  0  0  0  0  0  0  0  0
  -14.9386    4.8881    0.0000 C   0  0  0  0  0  0  0  0  0  0  0  0
  -13.5259    4.6731    0.0000 C   0  0  0  0  0  0  0  0  0  0  0  0
  -15.7342    4.6698    0.0000 C   0  0  0  0  0  0  0  0  0  0  0  0
  -14.9004    5.7122    0.0000 C   0  0  0  0  0  0  0  0  0  0  0  0
  -16.1043    3.9325    0.0000 C   0  0  0  0  0  0  0  0  0  0  0  0
  -16.1877    5.3590    0.0000 C   0  0  0  0  0  0  0  0  0  0  0  0
  -15.6723    6.0033    0.0000 S   0  0  0  0  0  0  0  0  0  0  0  0
  -16.9279    3.8844    0.0000 C   0  0  0  0  0  0  0  0  0  0  0  0
  -17.0113    5.3109    0.0000 C   0  0  0  0  0  0  0  0  0  0  0  0
  -17.3814    4.5736    0.0000 C   0  0  0  0  0  0  0  0  0  0  0  0
  -17.3570    6.0600    0.0000 C   0  0  0  0  0  0  0  0  0  0  0  0
  -18.1886    4.4032    0.0000 C   0  0  0  0  0  0  0  0  0  0  0  0
  -18.1582    6.2567    0.0000 C   0  0  0  0  0  0  0  0  0  0  0  0
  -18.8251    4.9281    0.0000 C   0  0  0  0  0  0  0  0  0  0  0  0
  -18.8115    5.7530    0.0000 N   0  0  0  0  0  0  0  0  0  0  0  0
  -12.8313    4.2279    0.0000 O   0  0  0  0  0  0  0  0  0  0  0  0
  -13.3172    5.4712    0.0000 C   0  0  0  0  0  0  0  0  0  0  0  0
  -12.1933    4.7510    0.0000 C   0  0  0  0  0  0  0  0  0  0  0  0
  -12.4936    5.5194    0.0000 C   0  0  0  0  0  0  0  0  0  0  0  0
  1  2  1  0  0  0  0
  1  3  1  0  0  0  0
  2  4  1  0  0  0  0
  5  2  2  0  0  0  0
  6  4  2  0  0  0  0
  4  7  1  0  0  0  0
  8  5  1  0  0  0  0
  9  6  1  0  0  0  0
  7 10  2  0  0  0  0
  7  8  1  0  0  0  0
  9 11  2  0  0  0  0
 10 11  1  0  0  0  0
 10 12  1  0  0  0  0
 11 13  1  0  0  0  0
 12 14  1  0  0  0  0
 13 15  1  0  0  0  0
 14 16  1  0  0  0  0
 15 16  1  0  0  0  0
 17  3  1  0  0  0  0
 18  3  2  0  0  0  0
 17 19  1  0  0  0  0
 20 18  1  0  0  0  0
 19 20  2  0  0  0  0
M  END
> <Product (SMILES)>
c1coc(Nc2csc3c4c(ccc23)CCNCC4)c1

> <Code name>
1_0_0_0

$$$$

  Mrv2110 10032416322D          

 20 23  0  0  0  0            999 V2000
  -13.6582    4.4007    0.0000 N   0  0  0  0  0  0  0  0  0  0  0  0
  -14.3024    4.9160    0.0000 C   0  0  0  0  0  0  0  0  0  0  0  0
  -12.8898    4.7010    0.0000 C   0  0  0  0  0  0  0  0  0  0  0  0
  -15.0980    4.6977    0.0000 C   0  0  0  0  0  0  0  0  0  0  0  0
  -14.2642    5.7401    0.0000 C   0  0  0  0  0  0  0  0  0  0  0  0
  -15.4681    3.9604    0.0000 C   0  0  0  0  0  0  0  0  0  0  0  0
  -15.5515    5.3869    0.0000 C   0  0  0  0  0  0  0  0  0  0  0  0
  -15.0362    6.0312    0.0000 S   0  0  0  0  0  0  0  0  0  0  0  0
  -16.2917    3.9123    0.0000 C   0  0  0  0  0  0  0  0  0  0  0  0
  -16.3751    5.3388    0.0000 C   0  0  0  0  0  0  0  0  0  0  0  0
  -16.7452    4.6014    0.0000 C   0  0  0  0  0  0  0  0  0  0  0  0
  -16.7208    6.0878    0.0000 C   0  0  0  0  0  0  0  0  0  0  0  0
  -17.5524    4.4311    0.0000 C   0  0  0  0  0  0  0  0  0  0  0  0
  -17.5220    6.2846    0.0000 C   0  0  0  0  0  0  0  0  0  0  0  0
  -18.1889    4.9560    0.0000 C   0  0  0  0  0  0  0  0  0  0  0  0
  -18.1754    5.7809    0.0000 N   0  0  0  0  0  0  0  0  0  0  0  0
  -12.1952    4.2558    0.0000 S   0  0  0  0  0  0  0  0  0  0  0  0
  -12.6810    5.4991    0.0000 C   0  0  0  0  0  0  0  0  0  0  0  0
  -11.5572    4.7789    0.0000 C   0  0  0  0  0  0  0  0  0  0  0  0
  -11.8574    5.5473    0.0000 C   0  0  0  0  0  0  0  0  0  0  0  0
  1  2  1  0  0  0  0
  1  3  1  0  0  0  0
  2  4  1  0  0  0  0
  5  2  2  0  0  0  0
  6  4  2  0  0  0  0
  4  7  1  0  0  0  0
  8  5  1  0  0  0  0
  9  6  1  0  0  0  0
  7 10  2  0  0  0  0
  7  8  1  0  0  0  0
  9 11  2  0  0  0  0
 10 11  1  0  0  0  0
 10 12  1  0  0  0  0
 11 13  1  0  0  0  0
 12 14  1  0  0  0  0
 13 15  1  0  0  0  0
 14 16  1  0  0  0  0
 15 16  1  0  0  0  0
 17  3  1  0  0  0  0
 18  3  2  0  0  0  0
 17 19  1  0  0  0  0
 20 18  1  0  0  0  0
 19 20  2  0  0  0  0
M  END
> <Product (SMILES)>
c1csc(Nc2csc3c4c(ccc23)CCNCC4)c1

> <Code name>
1_1_0_0

$$$$

  Mrv2110 10032416322D          

 20 23  0  0  0  0            999 V2000
  -11.6654    5.0740    0.0000 N   0  0  0  0  0  0  0  0  0  0  0  0
  -12.3097    5.5893    0.0000 C   0  0  0  0  0  0  0  0  0  0  0  0
  -10.8970    5.3743    0.0000 C   0  0  0  0  0  0  0  0  0  0  0  0
  -13.1052    5.3710    0.0000 C   0  0  0  0  0  0  0  0  0  0  0  0
  -12.2714    6.4134    0.0000 C   0  0  0  0  0  0  0  0  0  0  0  0
  -13.4754    4.6337    0.0000 C   0  0  0  0  0  0  0  0  0  0  0  0
  -13.5587    6.0602    0.0000 C   0  0  0  0  0  0  0  0  0  0  0  0
  -13.0434    6.7044    0.0000 S   0  0  0  0  0  0  0  0  0  0  0  0
  -14.2990    4.5855    0.0000 C   0  0  0  0  0  0  0  0  0  0  0  0
  -14.3823    6.0121    0.0000 C   0  0  0  0  0  0  0  0  0  0  0  0
  -14.7524    5.2747    0.0000 C   0  0  0  0  0  0  0  0  0  0  0  0
  -14.7280    6.7611    0.0000 C   0  0  0  0  0  0  0  0  0  0  0  0
  -15.5597    5.1044    0.0000 C   0  0  0  0  0  0  0  0  0  0  0  0
  -15.5292    6.9579    0.0000 C   0  0  0  0  0  0  0  0  0  0  0  0
  -16.1961    5.6293    0.0000 C   0  0  0  0  0  0  0  0  0  0  0  0
  -16.1826    6.4542    0.0000 N   0  0  0  0  0  0  0  0  0  0  0  0
  -10.2024    4.9291    0.0000 O   0  0  0  0  0  0  0  0  0  0  0  0
  -10.6883    6.1724    0.0000 N   0  0  0  0  0  0  0  0  0  0  0  0
   -9.5644    5.4521    0.0000 C   0  0  0  0  0  0  0  0  0  0  0  0
   -9.8647    6.2206    0.0000 C   0  0  0  0  0  0  0  0  0  0  0  0
  1  2  1  0  0  0  0
  1  3  1  0  0  0  0
  2  4  1  0  0  0  0
  5  2  2  0  0  0  0
  6  4  2  0  0  0  0
  4  7  1  0  0  0  0
  8  5  1  0  0  0  0
  9  6  1  0  0  0  0
  7 10  2  0  0  0  0
  7  8  1  0  0  0  0
  9 11  2  0  0  0  0
 10 11  1  0  0  0  0
 10 12  1  0  0  0  0
 11 13  1  0  0  0  0
 12 14  1  0  0  0  0
 13 15  1  0  0  0  0
 14 16  1  0  0  0  0
 15 16  1  0  0  0  0
 17  3  1  0  0  0  0
 18  3  2  0  0  0  0
 17 19  1  0  0  0  0
 20 18  1  0  0  0  0
 19 20  2  0  0  0  0
M  END
> <Product (SMILES)>
c1coc(Nc2csc3c4c(ccc23)CCNCC4)n1

> <Code name>
1_3_0_0

$$$$

  Mrv2110 10032416322D          

 20 23  0  0  0  0            999 V2000
  -11.0292    5.1019    0.0000 N   0  0  0  0  0  0  0  0  0  0  0  0
  -11.6735    5.6172    0.0000 C   0  0  0  0  0  0  0  0  0  0  0  0
  -10.2608    5.4022    0.0000 C   0  0  0  0  0  0  0  0  0  0  0  0
  -12.4691    5.3989    0.0000 C   0  0  0  0  0  0  0  0  0  0  0  0
  -11.6353    6.4413    0.0000 C   0  0  0  0  0  0  0  0  0  0  0  0
  -12.8392    4.6616    0.0000 C   0  0  0  0  0  0  0  0  0  0  0  0
  -12.9226    6.0881    0.0000 C   0  0  0  0  0  0  0  0  0  0  0  0
  -12.4072    6.7323    0.0000 S   0  0  0  0  0  0  0  0  0  0  0  0
  -13.6628    4.6135    0.0000 C   0  0  0  0  0  0  0  0  0  0  0  0
  -13.7462    6.0400    0.0000 C   0  0  0  0  0  0  0  0  0  0  0  0
  -14.1163    5.3026    0.0000 C   0  0  0  0  0  0  0  0  0  0  0  0
  -14.0919    6.7890    0.0000 C   0  0  0  0  0  0  0  0  0  0  0  0
  -14.9235    5.1323    0.0000 C   0  0  0  0  0  0  0  0  0  0  0  0
  -14.8931    6.9858    0.0000 C   0  0  0  0  0  0  0  0  0  0  0  0
  -15.5600    5.6572    0.0000 C   0  0  0  0  0  0  0  0  0  0  0  0
  -15.5464    6.4821    0.0000 N   0  0  0  0  0  0  0  0  0  0  0  0
   -9.5662    4.9570    0.0000 S   0  0  0  0  0  0  0  0  0  0  0  0
  -10.0521    6.2003    0.0000 N   0  0  0  0  0  0  0  0  0  0  0  0
   -8.9282    5.4800    0.0000 C   0  0  0  0  0  0  0  0  0  0  0  0
   -9.2285    6.2485    0.0000 C   0  0  0  0  0  0  0  0  0  0  0  0
  1  2  1  0  0  0  0
  1  3  1  0  0  0  0
  2  4  1  0  0  0  0
  5  2  2  0  0  0  0
  6  4  2  0  0  0  0
  4  7  1  0  0  0  0
  8  5  1  0  0  0  0
  9  6  1  0  0  0  0
  7 10  2  0  0  0  0
  7  8  1  0  0  0  0
  9 11  2  0  0  0  0
 10 11  1  0  0  0  0
 10 12  1  0  0  0  0
 11 13  1  0  0  0  0
 12 14  1  0  0  0  0
 13 15  1  0  0  0  0
 14 16  1  0  0  0  0
 15 16  1  0  0  0  0
 17  3  1  0  0  0  0
 18  3  2  0  0  0  0
 17 19  1  0  0  0  0
 20 18  1  0  0  0  0
 19 20  2  0  0  0  0
M  END
> <Product (SMILES)>
c1csc(Nc2csc3c4c(ccc23)CCNCC4)n1

> <Code name>
1_4_0_0

$$$$

  Mrv2110 10032416322D          

 20 23  0  0  0  0            999 V2000
  -13.3051    5.0934    0.0000 N   0  0  0  0  0  0  0  0  0  0  0  0
  -13.9494    5.6087    0.0000 C   0  0  0  0  0  0  0  0  0  0  0  0
  -12.5367    5.3937    0.0000 C   0  0  0  0  0  0  0  0  0  0  0  0
  -14.7450    5.3904    0.0000 C   0  0  0  0  0  0  0  0  0  0  0  0
  -13.9112    6.4328    0.0000 C   0  0  0  0  0  0  0  0  0  0  0  0
  -15.1151    4.6531    0.0000 C   0  0  0  0  0  0  0  0  0  0  0  0
  -15.1985    6.0796    0.0000 C   0  0  0  0  0  0  0  0  0  0  0  0
  -14.6831    6.7238    0.0000 S   0  0  0  0  0  0  0  0  0  0  0  0
  -15.9387    4.6050    0.0000 C   0  0  0  0  0  0  0  0  0  0  0  0
  -16.0221    6.0315    0.0000 C   0  0  0  0  0  0  0  0  0  0  0  0
  -16.3922    5.2941    0.0000 C   0  0  0  0  0  0  0  0  0  0  0  0
  -16.3678    6.7805    0.0000 C   0  0  0  0  0  0  0  0  0  0  0  0
  -17.1994    5.1238    0.0000 C   0  0  0  0  0  0  0  0  0  0  0  0
  -17.1690    6.9773    0.0000 C   0  0  0  0  0  0  0  0  0  0  0  0
  -17.8359    5.6487    0.0000 C   0  0  0  0  0  0  0  0  0  0  0  0
  -17.8223    6.4736    0.0000 N   0  0  0  0  0  0  0  0  0  0  0  0
  -11.8421    4.9485    0.0000 N   0  0  0  0  0  0  0  0  0  0  0  0
  -12.3280    6.1918    0.0000 C   0  0  0  0  0  0  0  0  0  0  0  0
  -11.2041    5.4715    0.0000 N   0  0  0  0  0  0  0  0  0  0  0  0
  -11.5044    6.2400    0.0000 C   0  0  0  0  0  0  0  0  0  0  0  0
  1  2  1  0  0  0  0
  1  3  1  0  0  0  0
  2  4  1  0  0  0  0
  5  2  2  0  0  0  0
  6  4  2  0  0  0  0
  4  7  1  0  0  0  0
  8  5  1  0  0  0  0
  9  6  1  0  0  0  0
  7 10  2  0  0  0  0
  7  8  1  0  0  0  0
  9 11  2  0  0  0  0
 10 11  1  0  0  0  0
 10 12  1  0  0  0  0
 11 13  1  0  0  0  0
 12 14  1  0  0  0  0
 13 15  1  0  0  0  0
 14 16  1  0  0  0  0
 15 16  1  0  0  0  0
 17  3  1  0  0  0  0
 18  3  2  0  0  0  0
 17 19  1  0  0  0  0
 20 18  1  0  0  0  0
 19 20  2  0  0  0  0
M  END
> <Product (SMILES)>
c1cc(Nc2csc3c4c(ccc23)CCNCC4)[nH]n1

> <Code name>
1_5_0_0

$$$$

  Mrv2110 10032416322D          

 20 23  0  0  0  0            999 V2000
  -10.5716    3.6175    0.0000 N   0  0  0  0  0  0  0  0  0  0  0  0
  -11.2159    4.1328    0.0000 C   0  0  0  0  0  0  0  0  0  0  0  0
   -9.8032    3.9178    0.0000 C   0  0  0  0  0  0  0  0  0  0  0  0
  -12.0115    3.9145    0.0000 C   0  0  0  0  0  0  0  0  0  0  0  0
  -11.1777    4.9570    0.0000 C   0  0  0  0  0  0  0  0  0  0  0  0
  -12.3816    3.1772    0.0000 C   0  0  0  0  0  0  0  0  0  0  0  0
  -12.4650    4.6037    0.0000 C   0  0  0  0  0  0  0  0  0  0  0  0
  -11.9496    5.2480    0.0000 S   0  0  0  0  0  0  0  0  0  0  0  0
  -13.2052    3.1291    0.0000 C   0  0  0  0  0  0  0  0  0  0  0  0
  -13.2886    4.5556    0.0000 C   0  0  0  0  0  0  0  0  0  0  0  0
  -13.6587    3.8183    0.0000 C   0  0  0  0  0  0  0  0  0  0  0  0
  -13.6343    5.3047    0.0000 C   0  0  0  0  0  0  0  0  0  0  0  0
  -14.4659    3.6479    0.0000 C   0  0  0  0  0  0  0  0  0  0  0  0
  -14.4355    5.5014    0.0000 C   0  0  0  0  0  0  0  0  0  0  0  0
  -15.1024    4.1728    0.0000 C   0  0  0  0  0  0  0  0  0  0  0  0
  -15.0888    4.9977    0.0000 N   0  0  0  0  0  0  0  0  0  0  0  0
   -9.1086    3.4726    0.0000 N   0  0  0  0  0  0  0  0  0  0  0  0
   -9.5945    4.7160    0.0000 N   0  0  0  0  0  0  0  0  0  0  0  0
   -8.4706    3.9957    0.0000 C   0  0  0  0  0  0  0  0  0  0  0  0
   -8.7709    4.7641    0.0000 C   0  0  0  0  0  0  0  0  0  0  0  0
  1  2  1  0  0  0  0
  1  3  1  0  0  0  0
  2  4  1  0  0  0  0
  5  2  2  0  0  0  0
  6  4  2  0  0  0  0
  4  7  1  0  0  0  0
  8  5  1  0  0  0  0
  9  6  1  0  0  0  0
  7 10  2  0  0  0  0
  7  8  1  0  0  0  0
  9 11  2  0  0  0  0
 10 11  1  0  0  0  0
 10 12  1  0  0  0  0
 11 13  1  0  0  0  0
 12 14  1  0  0  0  0
 13 15  1  0  0  0  0
 14 16  1  0  0  0  0
 15 16  1  0  0  0  0
 17  3  1  0  0  0  0
 18  3  2  0  0  0  0
 17 19  1  0  0  0  0
 20 18  1  0  0  0  0
 19 20  2  0  0  0  0
M  END
> <Product (SMILES)>
c1c[nH]c(Nc2csc3c4c(ccc23)CCNCC4)n1

> <Code name>
1_6_0_0

$$$$

  Mrv2110 10032416322D          

 21 24  0  0  0  0            999 V2000
  -14.9557    2.8859    0.0000 N   0  0  0  0  0  0  0  0  0  0  0  0
  -15.5999    3.4013    0.0000 C   0  0  0  0  0  0  0  0  0  0  0  0
  -14.1872    3.1862    0.0000 C   0  0  0  0  0  0  0  0  0  0  0  0
  -16.3955    3.1829    0.0000 C   0  0  0  0  0  0  0  0  0  0  0  0
  -15.5617    4.2254    0.0000 C   0  0  0  0  0  0  0  0  0  0  0  0
  -16.7656    2.4456    0.0000 C   0  0  0  0  0  0  0  0  0  0  0  0
  -16.8490    3.8721    0.0000 C   0  0  0  0  0  0  0  0  0  0  0  0
  -16.3337    4.5164    0.0000 S   0  0  0  0  0  0  0  0  0  0  0  0
  -17.5892    2.3975    0.0000 C   0  0  0  0  0  0  0  0  0  0  0  0
  -17.6726    3.8240    0.0000 C   0  0  0  0  0  0  0  0  0  0  0  0
  -18.0427    3.0867    0.0000 C   0  0  0  0  0  0  0  0  0  0  0  0
  -18.0183    4.5731    0.0000 C   0  0  0  0  0  0  0  0  0  0  0  0
  -18.8499    2.9163    0.0000 C   0  0  0  0  0  0  0  0  0  0  0  0
  -18.8195    4.7698    0.0000 C   0  0  0  0  0  0  0  0  0  0  0  0
  -19.4864    3.4412    0.0000 C   0  0  0  0  0  0  0  0  0  0  0  0
  -19.4728    4.2661    0.0000 N   0  0  0  0  0  0  0  0  0  0  0  0
  -13.5430    2.6709    0.0000 N   0  0  0  0  0  0  0  0  0  0  0  0
  -14.0631    4.0018    0.0000 C   0  0  0  0  0  0  0  0  0  0  0  0
  -12.7746    2.9712    0.0000 N   0  0  0  0  0  0  0  0  0  0  0  0
  -13.2947    4.3021    0.0000 C   0  0  0  0  0  0  0  0  0  0  0  0
  -12.6504    3.7868    0.0000 C   0  0  0  0  0  0  0  0  0  0  0  0
  1  2  1  0  0  0  0
  1  3  1  0  0  0  0
  2  4  1  0  0  0  0
  5  2  2  0  0  0  0
  6  4  2  0  0  0  0
  4  7  1  0  0  0  0
  8  5  1  0  0  0  0
  9  6  1  0  0  0  0
  7 10  2  0  0  0  0
  7  8  1  0  0  0  0
  9 11  2  0  0  0  0
 10 11  1  0  0  0  0
 10 12  1  0  0  0  0
 11 13  1  0  0  0  0
 12 14  1  0  0  0  0
 13 15  1  0  0  0  0
 14 16  1  0  0  0  0
 15 16  1  0  0  0  0
 17  3  2  0  0  0  0
 18  3  1  0  0  0  0
 17 19  1  0  0  0  0
 20 18  2  0  0  0  0
 19 21  2  0  0  0  0
 21 20  1  0  0  0  0
M  END
> <Product (SMILES)>
c1cnnc(Nc2csc3c4c(ccc23)CCNCC4)c1

> <Code name>
1_7_0_0

$$$$

  Mrv2110 10032416322D          

 21 24  0  0  0  0            999 V2000
  -13.6419    2.8604    0.0000 N   0  0  0  0  0  0  0  0  0  0  0  0
  -14.2862    3.3757    0.0000 C   0  0  0  0  0  0  0  0  0  0  0  0
  -12.8735    3.1607    0.0000 C   0  0  0  0  0  0  0  0  0  0  0  0
  -15.0817    3.1574    0.0000 C   0  0  0  0  0  0  0  0  0  0  0  0
  -14.2479    4.1999    0.0000 C   0  0  0  0  0  0  0  0  0  0  0  0
  -15.4519    2.4201    0.0000 C   0  0  0  0  0  0  0  0  0  0  0  0
  -15.5352    3.8466    0.0000 C   0  0  0  0  0  0  0  0  0  0  0  0
  -15.0199    4.4909    0.0000 S   0  0  0  0  0  0  0  0  0  0  0  0
  -16.2755    2.3720    0.0000 C   0  0  0  0  0  0  0  0  0  0  0  0
  -16.3588    3.7985    0.0000 C   0  0  0  0  0  0  0  0  0  0  0  0
  -16.7289    3.0612    0.0000 C   0  0  0  0  0  0  0  0  0  0  0  0
  -16.7045    4.5476    0.0000 C   0  0  0  0  0  0  0  0  0  0  0  0
  -17.5362    2.8908    0.0000 C   0  0  0  0  0  0  0  0  0  0  0  0
  -17.5057    4.7443    0.0000 C   0  0  0  0  0  0  0  0  0  0  0  0
  -18.1726    3.4157    0.0000 C   0  0  0  0  0  0  0  0  0  0  0  0
  -18.1591    4.2406    0.0000 N   0  0  0  0  0  0  0  0  0  0  0  0
  -12.2292    2.6454    0.0000 N   0  0  0  0  0  0  0  0  0  0  0  0
  -12.7493    3.9763    0.0000 N   0  0  0  0  0  0  0  0  0  0  0  0
  -11.4608    2.9456    0.0000 C   0  0  0  0  0  0  0  0  0  0  0  0
  -11.9809    4.2766    0.0000 C   0  0  0  0  0  0  0  0  0  0  0  0
  -11.3367    3.7613    0.0000 C   0  0  0  0  0  0  0  0  0  0  0  0
  1  2  1  0  0  0  0
  1  3  1  0  0  0  0
  2  4  1  0  0  0  0
  5  2  2  0  0  0  0
  6  4  2  0  0  0  0
  4  7  1  0  0  0  0
  8  5  1  0  0  0  0
  9  6  1  0  0  0  0
  7 10  2  0  0  0  0
  7  8  1  0  0  0  0
  9 11  2  0  0  0  0
 10 11  1  0  0  0  0
 10 12  1  0  0  0  0
 11 13  1  0  0  0  0
 12 14  1  0  0  0  0
 13 15  1  0  0  0  0
 14 16  1  0  0  0  0
 15 16  1  0  0  0  0
 17  3  2  0  0  0  0
 18  3  1  0  0  0  0
 17 19  1  0  0  0  0
 20 18  2  0  0  0  0
 19 21  2  0  0  0  0
 21 20  1  0  0  0  0
M  END
> <Product (SMILES)>
c1cnc(Nc2csc3c4c(ccc23)CCNCC4)nc1

> <Code name>
1_8_0_0

$$$$

  Mrv2110 10032416322D          

 21 24  0  0  0  0            999 V2000
  -12.3919    2.7903    0.0000 N   0  0  0  0  0  0  0  0  0  0  0  0
  -13.0361    3.3056    0.0000 C   0  0  0  0  0  0  0  0  0  0  0  0
  -11.6235    3.0905    0.0000 C   0  0  0  0  0  0  0  0  0  0  0  0
  -13.8317    3.0873    0.0000 C   0  0  0  0  0  0  0  0  0  0  0  0
  -12.9979    4.1297    0.0000 C   0  0  0  0  0  0  0  0  0  0  0  0
  -14.2018    2.3500    0.0000 C   0  0  0  0  0  0  0  0  0  0  0  0
  -14.2852    3.7765    0.0000 C   0  0  0  0  0  0  0  0  0  0  0  0
  -13.7699    4.4207    0.0000 S   0  0  0  0  0  0  0  0  0  0  0  0
  -15.0254    2.3018    0.0000 C   0  0  0  0  0  0  0  0  0  0  0  0
  -15.1088    3.7283    0.0000 C   0  0  0  0  0  0  0  0  0  0  0  0
  -15.4789    2.9910    0.0000 C   0  0  0  0  0  0  0  0  0  0  0  0
  -15.4545    4.4774    0.0000 C   0  0  0  0  0  0  0  0  0  0  0  0
  -16.2861    2.8207    0.0000 C   0  0  0  0  0  0  0  0  0  0  0  0
  -16.2557    4.6742    0.0000 C   0  0  0  0  0  0  0  0  0  0  0  0
  -16.9226    3.3456    0.0000 C   0  0  0  0  0  0  0  0  0  0  0  0
  -16.9091    4.1705    0.0000 N   0  0  0  0  0  0  0  0  0  0  0  0
  -10.9792    2.5752    0.0000 N   0  0  0  0  0  0  0  0  0  0  0  0
  -11.4993    3.9062    0.0000 C   0  0  0  0  0  0  0  0  0  0  0  0
  -10.2108    2.8755    0.0000 C   0  0  0  0  0  0  0  0  0  0  0  0
  -10.7309    4.2064    0.0000 C   0  0  0  0  0  0  0  0  0  0  0  0
  -10.0866    3.6911    0.0000 C   0  0  0  0  0  0  0  0  0  0  0  0
  1  2  1  0  0  0  0
  1  3  1  0  0  0  0
  2  4  1  0  0  0  0
  5  2  2  0  0  0  0
  6  4  2  0  0  0  0
  4  7  1  0  0  0  0
  8  5  1  0  0  0  0
  9  6  1  0  0  0  0
  7 10  2  0  0  0  0
  7  8  1  0  0  0  0
  9 11  2  0  0  0  0
 10 11  1  0  0  0  0
 10 12  1  0  0  0  0
 11 13  1  0  0  0  0
 12 14  1  0  0  0  0
 13 15  1  0  0  0  0
 14 16  1  0  0  0  0
 15 16  1  0  0  0  0
 17  3  2  0  0  0  0
 18  3  1  0  0  0  0
 17 19  1  0  0  0  0
 20 18  2  0  0  0  0
 19 21  2  0  0  0  0
 21 20  1  0  0  0  0
M  END
> <Product (SMILES)>
c1ccc(Nc2csc3c4c(ccc23)CCNCC4)nc1

> <Code name>
1_9_0_0

$$$$

  Mrv2110 10032416322D          

 21 24  0  0  0  0            999 V2000
  -11.3523    2.8859    0.0000 N   0  0  0  0  0  0  0  0  0  0  0  0
  -11.9966    3.4013    0.0000 C   0  0  0  0  0  0  0  0  0  0  0  0
  -10.5839    3.1862    0.0000 C   0  0  0  0  0  0  0  0  0  0  0  0
  -12.7922    3.1829    0.0000 C   0  0  0  0  0  0  0  0  0  0  0  0
  -11.9584    4.2254    0.0000 C   0  0  0  0  0  0  0  0  0  0  0  0
  -13.1623    2.4456    0.0000 C   0  0  0  0  0  0  0  0  0  0  0  0
  -13.2457    3.8721    0.0000 C   0  0  0  0  0  0  0  0  0  0  0  0
  -12.7303    4.5164    0.0000 S   0  0  0  0  0  0  0  0  0  0  0  0
  -13.9859    2.3975    0.0000 C   0  0  0  0  0  0  0  0  0  0  0  0
  -14.0693    3.8240    0.0000 C   0  0  0  0  0  0  0  0  0  0  0  0
  -14.4394    3.0867    0.0000 C   0  0  0  0  0  0  0  0  0  0  0  0
  -14.4150    4.5731    0.0000 C   0  0  0  0  0  0  0  0  0  0  0  0
  -15.2466    2.9163    0.0000 C   0  0  0  0  0  0  0  0  0  0  0  0
  -15.2162    4.7698    0.0000 C   0  0  0  0  0  0  0  0  0  0  0  0
  -15.8831    3.4412    0.0000 C   0  0  0  0  0  0  0  0  0  0  0  0
  -15.8695    4.2661    0.0000 N   0  0  0  0  0  0  0  0  0  0  0  0
   -9.9397    2.6709    0.0000 C   0  0  0  0  0  0  0  0  0  0  0  0
  -10.4598    4.0018    0.0000 C   0  0  0  0  0  0  0  0  0  0  0  0
   -9.1713    2.9712    0.0000 C   0  0  0  0  0  0  0  0  0  0  0  0
   -9.6914    4.3021    0.0000 C   0  0  0  0  0  0  0  0  0  0  0  0
   -9.0471    3.7868    0.0000 C   0  0  0  0  0  0  0  0  0  0  0  0
  1  2  1  0  0  0  0
  1  3  1  0  0  0  0
  2  4  1  0  0  0  0
  5  2  2  0  0  0  0
  6  4  2  0  0  0  0
  4  7  1  0  0  0  0
  8  5  1  0  0  0  0
  9  6  1  0  0  0  0
  7 10  2  0  0  0  0
  7  8  1  0  0  0  0
  9 11  2  0  0  0  0
 10 11  1  0  0  0  0
 10 12  1  0  0  0  0
 11 13  1  0  0  0  0
 12 14  1  0  0  0  0
 13 15  1  0  0  0  0
 14 16  1  0  0  0  0
 15 16  1  0  0  0  0
 17  3  2  0  0  0  0
 18  3  1  0  0  0  0
 17 19  1  0  0  0  0
 20 18  2  0  0  0  0
 19 21  2  0  0  0  0
 21 20  1  0  0  0  0
M  END
> <Product (SMILES)>
c1ccc(Nc2csc3c4c(ccc23)CCNCC4)cc1

> <Code name>
1_10_0_0

$$$$
