REMARK  Name = /home/prospero/dock/8WCC/valsartan/valsartan.pdb
REMARK  14 active torsions:
REMARK  status: ('A' for Active; 'I' for Inactive)
REMARK    1  A    between atoms: C1_1  and  C2_2
REMARK    2  A    between atoms: C2_2  and  C3_3
REMARK    3  A    between atoms: C3_3  and  C4_4
REMARK    4  A    between atoms: C4_4  and  C5_5
REMARK    5  A    between atoms: N1_7  and  C6_8
REMARK    6  A    between atoms: N1_7  and  C20_26
REMARK    7  A    between atoms: C6_8  and  C7_9
REMARK    8  A    between atoms: C10_12  and  C13_15
REMARK    9  A    between atoms: C18_20  and  C19_21
REMARK   10  A    between atoms: C20_26  and  C21_27
REMARK   11  A    between atoms: C20_26  and  C24_30
REMARK   12  A    between atoms: C21_27  and  C22_28
REMARK   13  A    between atoms: C21_27  and  C23_29
REMARK   14  A    between atoms: C24_30  and  O3_32
REMARK                            x       y       z     vdW  Elec       q    Type
REMARK                         _______ _______ _______ _____ _____    ______ ____
ROOT
ATOM      1  C7  UNL     1      -0.213   0.346  -1.917  0.00  0.00    +0.000 A 
ATOM      2  C8  UNL     1       0.570  -0.452  -2.767  0.00  0.00    +0.000 A 
ATOM      3  C9  UNL     1       1.964  -0.434  -2.671  0.00  0.00    +0.000 A 
ATOM      4  C10 UNL     1       2.596   0.379  -1.719  0.00  0.00    +0.000 A 
ATOM      5  C11 UNL     1       1.818   1.198  -0.887  0.00  0.00    +0.000 A 
ATOM      6  C12 UNL     1       0.424   1.176  -0.981  0.00  0.00    +0.000 A 
ENDROOT
BRANCH   4   7
ATOM      7  C13 UNL     1       4.072   0.390  -1.610  0.00  0.00    +0.000 A 
ATOM      8  C14 UNL     1       4.815   0.799  -2.730  0.00  0.00    +0.000 A 
ATOM      9  C15 UNL     1       6.204   0.909  -2.661  0.00  0.00    +0.000 A 
ATOM     10  C16 UNL     1       6.869   0.616  -1.472  0.00  0.00    +0.000 A 
ATOM     11  C17 UNL     1       6.150   0.195  -0.352  0.00  0.00    +0.000 A 
ATOM     12  C18 UNL     1       4.750   0.059  -0.405  0.00  0.00    +0.000 A 
BRANCH  12  13
ATOM     13  C19 UNL     1       4.047  -0.471   0.791  0.00  0.00    +0.000 A 
ATOM     14  N2  UNL     1       4.543  -0.419   2.043  0.00  0.00    +0.000 NA
ATOM     15  N3  UNL     1       3.629  -1.027   2.778  0.00  0.00    +0.000 N 
ATOM     16  N4  UNL     1       2.625  -1.444   2.027  0.00  0.00    +0.000 NA
ATOM     17  N5  UNL     1       2.861  -1.113   0.768  0.00  0.00    +0.000 NA
ATOM     18  H20 UNL     1       3.693  -1.164   3.810  0.00  0.00    +0.000 HD
ENDBRANCH  12  13
ENDBRANCH   4   7
BRANCH   1  19
ATOM     19  C6  UNL     1      -1.719   0.269  -1.971  0.00  0.00    +0.000 C 
BRANCH  19  22
ATOM     20  C5  UNL     1      -3.269   0.122   0.037  0.00  0.00    +0.000 C 
ATOM     21  O1  UNL     1      -4.138  -0.612   0.583  0.00  0.00    +0.000 OA
ATOM     22  N1  UNL     1      -2.253  -0.474  -0.812  0.00  0.00    +0.000 N 
BRANCH  20  23
ATOM     23  C4  UNL     1      -3.354   1.614   0.252  0.00  0.00    +0.000 C 
BRANCH  23  24
ATOM     24  C3  UNL     1      -3.816   1.965   1.673  0.00  0.00    +0.000 C 
BRANCH  24  26
ATOM     25  C1  UNL     1      -4.290   3.838   3.297  0.00  0.00    +0.000 C 
ATOM     26  C2  UNL     1      -3.834   3.484   1.885  0.00  0.00    +0.000 C 
ENDBRANCH  24  26
ENDBRANCH  23  24
ENDBRANCH  20  23
BRANCH  22  27
ATOM     27  C20 UNL     1      -1.853  -1.895  -0.652  0.00  0.00    +0.000 C 
BRANCH  27  28
ATOM     28  C21 UNL     1      -0.924  -2.081   0.592  0.00  0.00    +0.000 C 
ATOM     29  C22 UNL     1      -0.128  -3.396   0.526  0.00  0.00    +0.000 C 
ATOM     30  C23 UNL     1      -1.632  -1.947   1.950  0.00  0.00    +0.000 C 
ENDBRANCH  27  28
BRANCH  27  31
ATOM     31  C24 UNL     1      -3.048  -2.819  -0.750  0.00  0.00    +0.000 C 
ATOM     32  O2  UNL     1      -3.129  -3.868  -0.056  0.00  0.00    +0.000 OA
BRANCH  31  33
ATOM     33  O3  UNL     1      -4.042  -2.545  -1.686  0.00  0.00    +0.000 OA
ATOM     34  H29 UNL     1      -4.839  -3.160  -1.793  0.00  0.00    +0.000 HD
ENDBRANCH  31  33
ENDBRANCH  27  31
ENDBRANCH  22  27
ENDBRANCH  19  22
ENDBRANCH   1  19
TORSDOF 11
