MODEL 1
REMARK VINA RESULT:    -3.651      0.000      0.000
REMARK INTER + INTRA:          -4.902
REMARK INTER:                  -4.718
REMARK INTRA:                  -0.184
REMARK UNBOUND:                -0.184
REMARK  Name = /home/prospero/dock/8WCC/rivaroxaban/rivaroxaban.pdb
REMARK  5 active torsions:
REMARK  status: ('A' for Active; 'I' for Inactive)
REMARK    1  A    between atoms: N1_7  and  C5_8
REMARK    2  A    between atoms: C8_11  and  N2_14
REMARK    3  A    between atoms: C12_16  and  C14_20
REMARK    4  A    between atoms: C14_20  and  N3_21
REMARK    5  A    between atoms: C15_22  and  C16_24
REMARK                            x       y       z     vdW  Elec       q    Type
REMARK                         _______ _______ _______ _____ _____    ______ ____
ROOT
ATOM      1  N2  UNL     1     118.705 111.771  84.244  0.00  0.00    +0.000 N 
ATOM      2  C11 UNL     1     117.846 112.057  85.389  0.00  0.00    +0.000 C 
ATOM      3  C12 UNL     1     116.990 110.774  85.594  0.00  0.00    +0.000 C 
ATOM      4  O3  UNL     1     117.351 109.907  84.523  0.00  0.00    +0.000 OA
ATOM      5  C13 UNL     1     118.333 110.493  83.760  0.00  0.00    +0.000 C 
ATOM      6  O4  UNL     1     118.797 109.968  82.714  0.00  0.00    +0.000 OA
ENDROOT
BRANCH   1  10
ATOM      7  C5  UNL     1     121.856 114.261  82.812  0.00  0.00    +0.000 A 
ATOM      8  C6  UNL     1     120.943 113.690  81.914  0.00  0.00    +0.000 A 
ATOM      9  C7  UNL     1     119.909 112.874  82.379  0.00  0.00    +0.000 A 
ATOM     10  C8  UNL     1     119.762 112.621  83.756  0.00  0.00    +0.000 A 
ATOM     11  C9  UNL     1     120.686 113.187  84.651  0.00  0.00    +0.000 A 
ATOM     12  C10 UNL     1     121.719 114.004  84.185  0.00  0.00    +0.000 A 
BRANCH   7  19
ATOM     13  C1  UNL     1     123.006 116.485  82.833  0.00  0.00    +0.000 C 
ATOM     14  C2  UNL     1     124.025 117.298  82.027  0.00  0.00    +0.000 C 
ATOM     15  O1  UNL     1     125.246 116.591  81.933  0.00  0.00    +0.000 OA
ATOM     16  C3  UNL     1     125.093 115.478  81.072  0.00  0.00    +0.000 C 
ATOM     17  C4  UNL     1     123.982 114.574  81.526  0.00  0.00    +0.000 C 
ATOM     18  O2  UNL     1     123.953 113.378  81.128  0.00  0.00    +0.000 OA
ATOM     19  N1  UNL     1     122.914 115.109  82.331  0.00  0.00    +0.000 N 
ENDBRANCH   7  19
ENDBRANCH   1  10
BRANCH   3  20
ATOM     20  C14 UNL     1     117.281 110.096  86.938  0.00  0.00    +0.000 C 
BRANCH  20  21
ATOM     21  N3  UNL     1     116.061 109.516  87.498  0.00  0.00    +0.000 N 
ATOM     22  C15 UNL     1     115.973 109.086  88.866  0.00  0.00    +0.000 C 
ATOM     23  O5  UNL     1     117.001 109.104  89.596  0.00  0.00    +0.000 OA
ATOM     24  H16 UNL     1     115.261 109.357  86.849  0.00  0.00    +0.000 HD
BRANCH  22  25
ATOM     25  C16 UNL     1     114.698 108.616  89.439  0.00  0.00    +0.000 A 
ATOM     26  C17 UNL     1     113.662 109.402  89.943  0.00  0.00    +0.000 A 
ATOM     27  C18 UNL     1     112.584 108.653  90.431  0.00  0.00    +0.000 A 
ATOM     28  C19 UNL     1     112.773 107.284  90.315  0.00  0.00    +0.000 A 
ATOM     29  S1  UNL     1     114.269 106.995  89.611  0.00  0.00    +0.000 S 
ATOM     30 CL1  UNL     1     111.642 106.048  90.823  0.00  0.00    +0.000 Cl
ENDBRANCH  22  25
ENDBRANCH  20  21
ENDBRANCH   3  20
TORSDOF 5
ENDMDL
MODEL 2
REMARK VINA RESULT:    -2.487      5.608     10.768
REMARK INTER + INTRA:          -3.398
REMARK INTER:                  -2.772
REMARK INTRA:                  -0.626
REMARK UNBOUND:                -0.184
REMARK  Name = /home/prospero/dock/8WCC/rivaroxaban/rivaroxaban.pdb
REMARK  5 active torsions:
REMARK  status: ('A' for Active; 'I' for Inactive)
REMARK    1  A    between atoms: N1_7  and  C5_8
REMARK    2  A    between atoms: C8_11  and  N2_14
REMARK    3  A    between atoms: C12_16  and  C14_20
REMARK    4  A    between atoms: C14_20  and  N3_21
REMARK    5  A    between atoms: C15_22  and  C16_24
REMARK                            x       y       z     vdW  Elec       q    Type
REMARK                         _______ _______ _______ _____ _____    ______ ____
ROOT
ATOM      1  N2  UNL     1     122.476 115.681  83.806  0.00  0.00    +0.000 N 
ATOM      2  C11 UNL     1     122.377 116.626  82.697  0.00  0.00    +0.000 C 
ATOM      3  C12 UNL     1     123.746 117.363  82.659  0.00  0.00    +0.000 C 
ATOM      4  O3  UNL     1     124.475 116.860  83.775  0.00  0.00    +0.000 OA
ATOM      5  C13 UNL     1     123.733 115.900  84.421  0.00  0.00    +0.000 C 
ATOM      6  O4  UNL     1     124.115 115.330  85.477  0.00  0.00    +0.000 OA
ENDROOT
BRANCH   1  10
ATOM      7  C5  UNL     1     119.590 112.718  84.838  0.00  0.00    +0.000 A 
ATOM      8  C6  UNL     1     119.635 113.932  85.536  0.00  0.00    +0.000 A 
ATOM      9  C7  UNL     1     120.580 114.907  85.200  0.00  0.00    +0.000 A 
ATOM     10  C8  UNL     1     121.491 114.687  84.151  0.00  0.00    +0.000 A 
ATOM     11  C9  UNL     1     121.448 113.463  83.461  0.00  0.00    +0.000 A 
ATOM     12  C10 UNL     1     120.503 112.490  83.796  0.00  0.00    +0.000 A 
BRANCH   7  19
ATOM     13  C1  UNL     1     118.537 111.240  86.564  0.00  0.00    +0.000 C 
ATOM     14  C2  UNL     1     117.621 110.017  86.674  0.00  0.00    +0.000 C 
ATOM     15  O1  UNL     1     116.382 110.280  86.045  0.00  0.00    +0.000 OA
ATOM     16  C3  UNL     1     116.554 110.323  84.641  0.00  0.00    +0.000 C 
ATOM     17  C4  UNL     1     117.587 111.338  84.240  0.00  0.00    +0.000 C 
ATOM     18  O2  UNL     1     117.596 111.782  83.060  0.00  0.00    +0.000 OA
ATOM     19  N1  UNL     1     118.610 111.721  85.179  0.00  0.00    +0.000 N 
ENDBRANCH   7  19
ENDBRANCH   1  10
BRANCH   3  20
ATOM     20  C14 UNL     1     124.515 117.081  81.362  0.00  0.00    +0.000 C 
BRANCH  20  21
ATOM     21  N3  UNL     1     125.254 115.824  81.463  0.00  0.00    +0.000 N 
ATOM     22  C15 UNL     1     124.724 114.580  80.977  0.00  0.00    +0.000 C 
ATOM     23  O5  UNL     1     123.541 114.531  80.541  0.00  0.00    +0.000 OA
ATOM     24  H16 UNL     1     126.167 115.839  81.967  0.00  0.00    +0.000 HD
BRANCH  22  25
ATOM     25  C16 UNL     1     125.535 113.349  80.982  0.00  0.00    +0.000 A 
ATOM     26  C17 UNL     1     125.103 112.060  81.296  0.00  0.00    +0.000 A 
ATOM     27  C18 UNL     1     126.121 111.100  81.221  0.00  0.00    +0.000 A 
ATOM     28  C19 UNL     1     127.347 111.632  80.852  0.00  0.00    +0.000 A 
ATOM     29  S1  UNL     1     127.180 113.287  80.620  0.00  0.00    +0.000 S 
ATOM     30 CL1  UNL     1     128.838 110.733  80.663  0.00  0.00    +0.000 Cl
ENDBRANCH  22  25
ENDBRANCH  20  21
ENDBRANCH   3  20
TORSDOF 5
ENDMDL
