REMARK  Name = /home/prospero/dock/8WCC/rivaroxaban/rivaroxaban.pdb
REMARK  5 active torsions:
REMARK  status: ('A' for Active; 'I' for Inactive)
REMARK    1  A    between atoms: N1_7  and  C5_8
REMARK    2  A    between atoms: C8_11  and  N2_14
REMARK    3  A    between atoms: C12_16  and  C14_20
REMARK    4  A    between atoms: C14_20  and  N3_21
REMARK    5  A    between atoms: C15_22  and  C16_24
REMARK                            x       y       z     vdW  Elec       q    Type
REMARK                         _______ _______ _______ _____ _____    ______ ____
ROOT
ATOM      1  N2  UNL     1       0.346  -0.093   0.393  0.00  0.00    +0.000 N 
ATOM      2  C11 UNL     1       1.205   1.086   0.451  0.00  0.00    +0.000 C 
ATOM      3  C12 UNL     1       2.659   0.535   0.502  0.00  0.00    +0.000 C 
ATOM      4  O3  UNL     1       2.522  -0.882   0.558  0.00  0.00    +0.000 OA
ATOM      5  C13 UNL     1       1.192  -1.224   0.496  0.00  0.00    +0.000 C 
ATOM      6  O4  UNL     1       0.782  -2.411   0.584  0.00  0.00    +0.000 OA
ENDROOT
BRANCH   1  10
ATOM      7  C5  UNL     1      -3.879  -0.023  -0.173  0.00  0.00    +0.000 A 
ATOM      8  C6  UNL     1      -3.120  -1.099  -0.654  0.00  0.00    +0.000 A 
ATOM      9  C7  UNL     1      -1.735  -1.126  -0.470  0.00  0.00    +0.000 A 
ATOM     10  C8  UNL     1      -1.084  -0.080   0.209  0.00  0.00    +0.000 A 
ATOM     11  C9  UNL     1      -1.848   1.002   0.680  0.00  0.00    +0.000 A 
ATOM     12  C10 UNL     1      -3.233   1.027   0.497  0.00  0.00    +0.000 A 
BRANCH   7  19
ATOM     13  C1  UNL     1      -6.116  -1.066   0.254  0.00  0.00    +0.000 C 
ATOM     14  C2  UNL     1      -7.560  -1.017  -0.256  0.00  0.00    +0.000 C 
ATOM     15  O1  UNL     1      -8.073   0.295  -0.138  0.00  0.00    +0.000 OA
ATOM     16  C3  UNL     1      -7.456   1.141  -1.090  0.00  0.00    +0.000 C 
ATOM     17  C4  UNL     1      -5.960   1.134  -0.950  0.00  0.00    +0.000 C 
ATOM     18  O2  UNL     1      -5.287   2.086  -1.430  0.00  0.00    +0.000 OA
ATOM     19  N1  UNL     1      -5.306  -0.003  -0.355  0.00  0.00    +0.000 N 
ENDBRANCH   7  19
ENDBRANCH   1  10
BRANCH   3  20
ATOM     20  C14 UNL     1       3.470   0.934  -0.737  0.00  0.00    +0.000 C 
BRANCH  20  21
ATOM     21  N3  UNL     1       4.812   0.356  -0.683  0.00  0.00    +0.000 N 
ATOM     22  C15 UNL     1       5.830   0.859   0.197  0.00  0.00    +0.000 C 
ATOM     23  O5  UNL     1       5.613   1.899   0.877  0.00  0.00    +0.000 OA
ATOM     24  H16 UNL     1       5.038  -0.404  -1.360  0.00  0.00    +0.000 HD
BRANCH  22  25
ATOM     25  C16 UNL     1       7.136   0.186   0.320  0.00  0.00    +0.000 A 
ATOM     26  C17 UNL     1       7.515  -1.025  -0.259  0.00  0.00    +0.000 A 
ATOM     27  C18 UNL     1       8.825  -1.406   0.059  0.00  0.00    +0.000 A 
ATOM     28  C19 UNL     1       9.472  -0.500   0.886  0.00  0.00    +0.000 A 
ATOM     29  S1  UNL     1       8.430   0.771   1.228  0.00  0.00    +0.000 S 
ATOM     30 CL1  UNL     1      11.109  -0.652   1.488  0.00  0.00    +0.000 Cl
ENDBRANCH  22  25
ENDBRANCH  20  21
ENDBRANCH   3  20
TORSDOF 5
