MODEL 1
REMARK VINA RESULT:    -6.278      0.000      0.000
REMARK INTER + INTRA:          -8.162
REMARK INTER:                  -7.563
REMARK INTRA:                  -0.599
REMARK UNBOUND:                -0.599
REMARK  Name = /home/prospero/dock/8WCC/aspirin/aspirin.pdb
REMARK  5 active torsions:
REMARK  status: ('A' for Active; 'I' for Inactive)
REMARK    1  A    between atoms: C1_1  and  C2_2
REMARK    2  A    between atoms: C2_2  and  O2_4
REMARK    3  A    between atoms: O2_4  and  C3_5
REMARK    4  A    between atoms: C8_10  and  C9_11
REMARK    5  A    between atoms: C9_11  and  O4_13
REMARK                            x       y       z     vdW  Elec       q    Type
REMARK                         _______ _______ _______ _____ _____    ______ ____
ROOT
ATOM      1  C3  UNL     1     120.295 112.799  83.465  0.00  0.00    +0.000 A 
ATOM      2  C4  UNL     1     119.954 112.193  82.240  0.00  0.00    +0.000 A 
ATOM      3  C5  UNL     1     118.704 111.600  82.065  0.00  0.00    +0.000 A 
ATOM      4  C6  UNL     1     117.775 111.609  83.103  0.00  0.00    +0.000 A 
ATOM      5  C7  UNL     1     118.088 112.222  84.317  0.00  0.00    +0.000 A 
ATOM      6  C8  UNL     1     119.343 112.828  84.516  0.00  0.00    +0.000 A 
ENDROOT
BRANCH   6   7
ATOM      7  C9  UNL     1     119.634 113.469  85.824  0.00  0.00    +0.000 C 
ATOM      8  O3  UNL     1     118.753 114.135  86.432  0.00  0.00    +0.000 OA
BRANCH   7   9
ATOM      9  O4  UNL     1     120.897 113.340  86.400  0.00  0.00    +0.000 OA
ATOM     10  H8  UNL     1     121.451 112.503  86.258  0.00  0.00    +0.000 HD
ENDBRANCH   7   9
ENDBRANCH   6   7
BRANCH   1  11
ATOM     11  O2  UNL     1     121.548 113.410  83.642  0.00  0.00    +0.000 OA
BRANCH  11  13
ATOM     12  C1  UNL     1     121.401 115.892  83.436  0.00  0.00    +0.000 C 
ATOM     13  C2  UNL     1     121.973 114.585  83.008  0.00  0.00    +0.000 C 
ATOM     14  O1  UNL     1     122.899 114.563  82.152  0.00  0.00    +0.000 OA
ENDBRANCH  11  13
ENDBRANCH   1  11
TORSDOF 4
ENDMDL
MODEL 2
REMARK VINA RESULT:    -6.160      1.087      1.140
REMARK INTER + INTRA:          -8.019
REMARK INTER:                  -7.570
REMARK INTRA:                  -0.449
REMARK UNBOUND:                -0.599
REMARK  Name = /home/prospero/dock/8WCC/aspirin/aspirin.pdb
REMARK  5 active torsions:
REMARK  status: ('A' for Active; 'I' for Inactive)
REMARK    1  A    between atoms: C1_1  and  C2_2
REMARK    2  A    between atoms: C2_2  and  O2_4
REMARK    3  A    between atoms: O2_4  and  C3_5
REMARK    4  A    between atoms: C8_10  and  C9_11
REMARK    5  A    between atoms: C9_11  and  O4_13
REMARK                            x       y       z     vdW  Elec       q    Type
REMARK                         _______ _______ _______ _____ _____    ______ ____
ROOT
ATOM      1  C3  UNL     1     120.648 113.210  83.427  0.00  0.00    +0.000 A 
ATOM      2  C4  UNL     1     120.579 112.884  82.059  0.00  0.00    +0.000 A 
ATOM      3  C5  UNL     1     119.477 112.197  81.548  0.00  0.00    +0.000 A 
ATOM      4  C6  UNL     1     118.427 111.836  82.389  0.00  0.00    +0.000 A 
ATOM      5  C7  UNL     1     118.469 112.169  83.744  0.00  0.00    +0.000 A 
ATOM      6  C8  UNL     1     119.571 112.862  84.282  0.00  0.00    +0.000 A 
ENDROOT
BRANCH   6   7
ATOM      7  C9  UNL     1     119.574 113.196  85.729  0.00  0.00    +0.000 C 
ATOM      8  O3  UNL     1     118.498 113.418  86.347  0.00  0.00    +0.000 OA
BRANCH   7   9
ATOM      9  O4  UNL     1     120.778 113.268  86.427  0.00  0.00    +0.000 OA
ATOM     10  H8  UNL     1     120.855 112.911  87.372  0.00  0.00    +0.000 HD
ENDBRANCH   7   9
ENDBRANCH   6   7
BRANCH   1  11
ATOM     11  O2  UNL     1     121.748 113.914  83.944  0.00  0.00    +0.000 OA
BRANCH  11  13
ATOM     12  C1  UNL     1     123.308 115.848  84.162  0.00  0.00    +0.000 C 
ATOM     13  C2  UNL     1     121.979 115.287  83.790  0.00  0.00    +0.000 C 
ATOM     14  O1  UNL     1     121.117 116.034  83.254  0.00  0.00    +0.000 OA
ENDBRANCH  11  13
ENDBRANCH   1  11
TORSDOF 4
ENDMDL
MODEL 3
REMARK VINA RESULT:    -6.151      1.715      2.654
REMARK INTER + INTRA:          -8.008
REMARK INTER:                  -7.758
REMARK INTRA:                  -0.250
REMARK UNBOUND:                -0.599
REMARK  Name = /home/prospero/dock/8WCC/aspirin/aspirin.pdb
REMARK  5 active torsions:
REMARK  status: ('A' for Active; 'I' for Inactive)
REMARK    1  A    between atoms: C1_1  and  C2_2
REMARK    2  A    between atoms: C2_2  and  O2_4
REMARK    3  A    between atoms: O2_4  and  C3_5
REMARK    4  A    between atoms: C8_10  and  C9_11
REMARK    5  A    between atoms: C9_11  and  O4_13
REMARK                            x       y       z     vdW  Elec       q    Type
REMARK                         _______ _______ _______ _____ _____    ______ ____
ROOT
ATOM      1  C3  UNL     1     119.644 112.792  83.442  0.00  0.00    +0.000 A 
ATOM      2  C4  UNL     1     120.080 113.298  82.201  0.00  0.00    +0.000 A 
ATOM      3  C5  UNL     1     119.374 113.014  81.032  0.00  0.00    +0.000 A 
ATOM      4  C6  UNL     1     118.223 112.232  81.083  0.00  0.00    +0.000 A 
ATOM      5  C7  UNL     1     117.766 111.738  82.306  0.00  0.00    +0.000 A 
ATOM      6  C8  UNL     1     118.461 112.013  83.499  0.00  0.00    +0.000 A 
ENDROOT
BRANCH   6   7
ATOM      7  C9  UNL     1     117.939 111.467  84.778  0.00  0.00    +0.000 C 
ATOM      8  O3  UNL     1     117.043 110.580  84.789  0.00  0.00    +0.000 OA
BRANCH   7   9
ATOM      9  O4  UNL     1     118.439 111.934  85.992  0.00  0.00    +0.000 OA
ATOM     10  H8  UNL     1     118.968 111.326  86.606  0.00  0.00    +0.000 HD
ENDBRANCH   7   9
ENDBRANCH   6   7
BRANCH   1  11
ATOM     11  O2  UNL     1     120.343 113.087  84.624  0.00  0.00    +0.000 OA
BRANCH  11  13
ATOM     12  C1  UNL     1     120.905 115.518  84.630  0.00  0.00    +0.000 C 
ATOM     13  C2  UNL     1     120.322 114.317  85.294  0.00  0.00    +0.000 C 
ATOM     14  O1  UNL     1     119.734 114.444  86.402  0.00  0.00    +0.000 OA
ENDBRANCH  11  13
ENDBRANCH   1  11
TORSDOF 4
ENDMDL
MODEL 4
REMARK VINA RESULT:    -5.943      1.818      3.812
REMARK INTER + INTRA:          -7.758
REMARK INTER:                  -7.137
REMARK INTRA:                  -0.621
REMARK UNBOUND:                -0.599
REMARK  Name = /home/prospero/dock/8WCC/aspirin/aspirin.pdb
REMARK  5 active torsions:
REMARK  status: ('A' for Active; 'I' for Inactive)
REMARK    1  A    between atoms: C1_1  and  C2_2
REMARK    2  A    between atoms: C2_2  and  O2_4
REMARK    3  A    between atoms: O2_4  and  C3_5
REMARK    4  A    between atoms: C8_10  and  C9_11
REMARK    5  A    between atoms: C9_11  and  O4_13
REMARK                            x       y       z     vdW  Elec       q    Type
REMARK                         _______ _______ _______ _____ _____    ______ ____
ROOT
ATOM      1  C3  UNL     1     119.715 112.592  83.350  0.00  0.00    +0.000 A 
ATOM      2  C4  UNL     1     119.910 111.820  82.188  0.00  0.00    +0.000 A 
ATOM      3  C5  UNL     1     121.141 111.827  81.530  0.00  0.00    +0.000 A 
ATOM      4  C6  UNL     1     122.194 112.592  82.026  0.00  0.00    +0.000 A 
ATOM      5  C7  UNL     1     122.024 113.348  83.187  0.00  0.00    +0.000 A 
ATOM      6  C8  UNL     1     120.791 113.356  83.868  0.00  0.00    +0.000 A 
ENDROOT
BRANCH   6   7
ATOM      7  C9  UNL     1     120.655 114.174  85.100  0.00  0.00    +0.000 C 
ATOM      8  O3  UNL     1     120.609 115.433  85.043  0.00  0.00    +0.000 OA
BRANCH   7   9
ATOM      9  O4  UNL     1     120.573 113.553  86.345  0.00  0.00    +0.000 OA
ATOM     10  H8  UNL     1     121.278 113.716  87.055  0.00  0.00    +0.000 HD
ENDBRANCH   7   9
ENDBRANCH   6   7
BRANCH   1  11
ATOM     11  O2  UNL     1     118.482 112.578  84.023  0.00  0.00    +0.000 OA
BRANCH  11  13
ATOM     12  C1  UNL     1     117.460 110.352  84.498  0.00  0.00    +0.000 C 
ATOM     13  C2  UNL     1     118.084 111.621  84.967  0.00  0.00    +0.000 C 
ATOM     14  O1  UNL     1     118.332 111.776  86.193  0.00  0.00    +0.000 OA
ENDBRANCH  11  13
ENDBRANCH   1  11
TORSDOF 4
ENDMDL
MODEL 5
REMARK VINA RESULT:    -5.867      1.040      3.352
REMARK INTER + INTRA:          -7.666
REMARK INTER:                  -7.151
REMARK INTRA:                  -0.515
REMARK UNBOUND:                -0.599
REMARK  Name = /home/prospero/dock/8WCC/aspirin/aspirin.pdb
REMARK  5 active torsions:
REMARK  status: ('A' for Active; 'I' for Inactive)
REMARK    1  A    between atoms: C1_1  and  C2_2
REMARK    2  A    between atoms: C2_2  and  O2_4
REMARK    3  A    between atoms: O2_4  and  C3_5
REMARK    4  A    between atoms: C8_10  and  C9_11
REMARK    5  A    between atoms: C9_11  and  O4_13
REMARK                            x       y       z     vdW  Elec       q    Type
REMARK                         _______ _______ _______ _____ _____    ______ ____
ROOT
ATOM      1  C3  UNL     1     119.652 112.795  83.983  0.00  0.00    +0.000 A 
ATOM      2  C4  UNL     1     118.385 112.195  83.850  0.00  0.00    +0.000 A 
ATOM      3  C5  UNL     1     117.923 111.780  82.600  0.00  0.00    +0.000 A 
ATOM      4  C6  UNL     1     118.720 111.949  81.470  0.00  0.00    +0.000 A 
ATOM      5  C7  UNL     1     119.987 112.524  81.586  0.00  0.00    +0.000 A 
ATOM      6  C8  UNL     1     120.473 112.948  82.837  0.00  0.00    +0.000 A 
ENDROOT
BRANCH   6   7
ATOM      7  C9  UNL     1     121.828 113.555  82.915  0.00  0.00    +0.000 C 
ATOM      8  O3  UNL     1     122.369 114.069  81.899  0.00  0.00    +0.000 OA
BRANCH   7   9
ATOM      9  O4  UNL     1     122.521 113.563  84.124  0.00  0.00    +0.000 OA
ATOM     10  H8  UNL     1     123.116 112.786  84.388  0.00  0.00    +0.000 HD
ENDBRANCH   7   9
ENDBRANCH   6   7
BRANCH   1  11
ATOM     11  O2  UNL     1     120.127 113.201  85.241  0.00  0.00    +0.000 OA
BRANCH  11  13
ATOM     12  C1  UNL     1     120.081 115.657  85.677  0.00  0.00    +0.000 C 
ATOM     13  C2  UNL     1     119.625 114.273  85.990  0.00  0.00    +0.000 C 
ATOM     14  O1  UNL     1     118.725 114.097  86.855  0.00  0.00    +0.000 OA
ENDBRANCH  11  13
ENDBRANCH   1  11
TORSDOF 4
ENDMDL
MODEL 6
REMARK VINA RESULT:    -5.864      1.887      2.684
REMARK INTER + INTRA:          -7.662
REMARK INTER:                  -7.223
REMARK INTRA:                  -0.439
REMARK UNBOUND:                -0.599
REMARK  Name = /home/prospero/dock/8WCC/aspirin/aspirin.pdb
REMARK  5 active torsions:
REMARK  status: ('A' for Active; 'I' for Inactive)
REMARK    1  A    between atoms: C1_1  and  C2_2
REMARK    2  A    between atoms: C2_2  and  O2_4
REMARK    3  A    between atoms: O2_4  and  C3_5
REMARK    4  A    between atoms: C8_10  and  C9_11
REMARK    5  A    between atoms: C9_11  and  O4_13
REMARK                            x       y       z     vdW  Elec       q    Type
REMARK                         _______ _______ _______ _____ _____    ______ ____
ROOT
ATOM      1  C3  UNL     1     121.823 114.664  83.418  0.00  0.00    +0.000 A 
ATOM      2  C4  UNL     1     122.328 114.192  82.191  0.00  0.00    +0.000 A 
ATOM      3  C5  UNL     1     121.947 112.943  81.699  0.00  0.00    +0.000 A 
ATOM      4  C6  UNL     1     121.052 112.153  82.417  0.00  0.00    +0.000 A 
ATOM      5  C7  UNL     1     120.527 112.613  83.626  0.00  0.00    +0.000 A 
ATOM      6  C8  UNL     1     120.897 113.870  84.141  0.00  0.00    +0.000 A 
ENDROOT
BRANCH   6   7
ATOM      7  C9  UNL     1     120.313 114.319  85.431  0.00  0.00    +0.000 C 
ATOM      8  O3  UNL     1     120.061 113.496  86.352  0.00  0.00    +0.000 OA
BRANCH   7   9
ATOM      9  O4  UNL     1     120.035 115.669  85.639  0.00  0.00    +0.000 OA
ATOM     10  H8  UNL     1     119.961 116.312  84.860  0.00  0.00    +0.000 HD
ENDBRANCH   7   9
ENDBRANCH   6   7
BRANCH   1  11
ATOM     11  O2  UNL     1     122.193 115.926  83.911  0.00  0.00    +0.000 OA
BRANCH  11  13
ATOM     12  C1  UNL     1     123.830 117.415  82.759  0.00  0.00    +0.000 C 
ATOM     13  C2  UNL     1     123.482 116.472  83.859  0.00  0.00    +0.000 C 
ATOM     14  O1  UNL     1     124.317 116.254  84.777  0.00  0.00    +0.000 OA
ENDBRANCH  11  13
ENDBRANCH   1  11
TORSDOF 4
ENDMDL
MODEL 7
REMARK VINA RESULT:    -5.863      2.385      3.424
REMARK INTER + INTRA:          -7.662
REMARK INTER:                  -7.232
REMARK INTRA:                  -0.430
REMARK UNBOUND:                -0.599
REMARK  Name = /home/prospero/dock/8WCC/aspirin/aspirin.pdb
REMARK  5 active torsions:
REMARK  status: ('A' for Active; 'I' for Inactive)
REMARK    1  A    between atoms: C1_1  and  C2_2
REMARK    2  A    between atoms: C2_2  and  O2_4
REMARK    3  A    between atoms: O2_4  and  C3_5
REMARK    4  A    between atoms: C8_10  and  C9_11
REMARK    5  A    between atoms: C9_11  and  O4_13
REMARK                            x       y       z     vdW  Elec       q    Type
REMARK                         _______ _______ _______ _____ _____    ______ ____
ROOT
ATOM      1  C3  UNL     1     121.107 114.780  83.977  0.00  0.00    +0.000 A 
ATOM      2  C4  UNL     1     120.617 115.642  84.977  0.00  0.00    +0.000 A 
ATOM      3  C5  UNL     1     119.747 115.168  85.959  0.00  0.00    +0.000 A 
ATOM      4  C6  UNL     1     119.361 113.830  85.963  0.00  0.00    +0.000 A 
ATOM      5  C7  UNL     1     119.852 112.957  84.991  0.00  0.00    +0.000 A 
ATOM      6  C8  UNL     1     120.732 113.413  83.991  0.00  0.00    +0.000 A 
ENDROOT
BRANCH   6   7
ATOM      7  C9  UNL     1     121.230 112.449  82.976  0.00  0.00    +0.000 C 
ATOM      8  O3  UNL     1     120.480 111.548  82.513  0.00  0.00    +0.000 OA
BRANCH   7   9
ATOM      9  O4  UNL     1     122.544 112.531  82.521  0.00  0.00    +0.000 OA
ATOM     10  H8  UNL     1     122.752 112.545  81.529  0.00  0.00    +0.000 HD
ENDBRANCH   7   9
ENDBRANCH   6   7
BRANCH   1  11
ATOM     11  O2  UNL     1     121.994 115.249  82.994  0.00  0.00    +0.000 OA
BRANCH  11  13
ATOM     12  C1  UNL     1     123.326 117.256  82.342  0.00  0.00    +0.000 C 
ATOM     13  C2  UNL     1     123.099 116.079  83.228  0.00  0.00    +0.000 C 
ATOM     14  O1  UNL     1     123.844 115.902  84.229  0.00  0.00    +0.000 OA
ENDBRANCH  11  13
ENDBRANCH   1  11
TORSDOF 4
ENDMDL
MODEL 8
REMARK VINA RESULT:    -5.862      2.007      3.977
REMARK INTER + INTRA:          -7.660
REMARK INTER:                  -7.070
REMARK INTRA:                  -0.590
REMARK UNBOUND:                -0.599
REMARK  Name = /home/prospero/dock/8WCC/aspirin/aspirin.pdb
REMARK  5 active torsions:
REMARK  status: ('A' for Active; 'I' for Inactive)
REMARK    1  A    between atoms: C1_1  and  C2_2
REMARK    2  A    between atoms: C2_2  and  O2_4
REMARK    3  A    between atoms: O2_4  and  C3_5
REMARK    4  A    between atoms: C8_10  and  C9_11
REMARK    5  A    between atoms: C9_11  and  O4_13
REMARK                            x       y       z     vdW  Elec       q    Type
REMARK                         _______ _______ _______ _____ _____    ______ ____
ROOT
ATOM      1  C3  UNL     1     121.692 113.478  83.839  0.00  0.00    +0.000 A 
ATOM      2  C4  UNL     1     121.127 112.334  83.241  0.00  0.00    +0.000 A 
ATOM      3  C5  UNL     1     121.324 112.071  81.885  0.00  0.00    +0.000 A 
ATOM      4  C6  UNL     1     122.094 112.935  81.110  0.00  0.00    +0.000 A 
ATOM      5  C7  UNL     1     122.677 114.063  81.690  0.00  0.00    +0.000 A 
ATOM      6  C8  UNL     1     122.493 114.348  83.056  0.00  0.00    +0.000 A 
ENDROOT
BRANCH   6   7
ATOM      7  C9  UNL     1     123.133 115.559  83.632  0.00  0.00    +0.000 C 
ATOM      8  O3  UNL     1     122.945 116.698  83.123  0.00  0.00    +0.000 OA
BRANCH   7   9
ATOM      9  O4  UNL     1     123.955 115.449  84.751  0.00  0.00    +0.000 OA
ATOM     10  H8  UNL     1     124.486 116.244  85.088  0.00  0.00    +0.000 HD
ENDBRANCH   7   9
ENDBRANCH   6   7
BRANCH   1  11
ATOM     11  O2  UNL     1     121.508 113.740  85.206  0.00  0.00    +0.000 OA
BRANCH  11  13
ATOM     12  C1  UNL     1     119.974 115.661  85.633  0.00  0.00    +0.000 C 
ATOM     13  C2  UNL     1     120.328 114.221  85.788  0.00  0.00    +0.000 C 
ATOM     14  O1  UNL     1     119.517 113.440  86.355  0.00  0.00    +0.000 OA
ENDBRANCH  11  13
ENDBRANCH   1  11
TORSDOF 4
ENDMDL
MODEL 9
REMARK VINA RESULT:    -5.856      2.024      3.396
REMARK INTER + INTRA:          -7.653
REMARK INTER:                  -7.089
REMARK INTRA:                  -0.563
REMARK UNBOUND:                -0.599
REMARK  Name = /home/prospero/dock/8WCC/aspirin/aspirin.pdb
REMARK  5 active torsions:
REMARK  status: ('A' for Active; 'I' for Inactive)
REMARK    1  A    between atoms: C1_1  and  C2_2
REMARK    2  A    between atoms: C2_2  and  O2_4
REMARK    3  A    between atoms: O2_4  and  C3_5
REMARK    4  A    between atoms: C8_10  and  C9_11
REMARK    5  A    between atoms: C9_11  and  O4_13
REMARK                            x       y       z     vdW  Elec       q    Type
REMARK                         _______ _______ _______ _____ _____    ______ ____
ROOT
ATOM      1  C3  UNL     1     119.993 113.176  83.876  0.00  0.00    +0.000 A 
ATOM      2  C4  UNL     1     120.889 114.256  83.996  0.00  0.00    +0.000 A 
ATOM      3  C5  UNL     1     120.777 115.158  85.055  0.00  0.00    +0.000 A 
ATOM      4  C6  UNL     1     119.778 114.991  86.011  0.00  0.00    +0.000 A 
ATOM      5  C7  UNL     1     118.893 113.916  85.919  0.00  0.00    +0.000 A 
ATOM      6  C8  UNL     1     118.988 112.993  84.860  0.00  0.00    +0.000 A 
ENDROOT
BRANCH   6   7
ATOM      7  C9  UNL     1     118.025 111.863  84.801  0.00  0.00    +0.000 C 
ATOM      8  O3  UNL     1     117.986 110.995  85.715  0.00  0.00    +0.000 OA
BRANCH   7   9
ATOM      9  O4  UNL     1     117.146 111.750  83.726  0.00  0.00    +0.000 OA
ATOM     10  H8  UNL     1     116.146 111.849  83.858  0.00  0.00    +0.000 HD
ENDBRANCH   7   9
ENDBRANCH   6   7
BRANCH   1  11
ATOM     11  O2  UNL     1     120.110 112.257  82.820  0.00  0.00    +0.000 OA
BRANCH  11  13
ATOM     12  C1  UNL     1     118.850 112.970  80.789  0.00  0.00    +0.000 C 
ATOM     13  C2  UNL     1     120.124 112.584  81.458  0.00  0.00    +0.000 C 
ATOM     14  O1  UNL     1     121.207 112.651  80.817  0.00  0.00    +0.000 OA
ENDBRANCH  11  13
ENDBRANCH   1  11
TORSDOF 4
ENDMDL
