REMARK  Name = /home/prospero/dock/8WCC/aspirin/aspirin.pdb
REMARK  5 active torsions:
REMARK  status: ('A' for Active; 'I' for Inactive)
REMARK    1  A    between atoms: C1_1  and  C2_2
REMARK    2  A    between atoms: C2_2  and  O2_4
REMARK    3  A    between atoms: O2_4  and  C3_5
REMARK    4  A    between atoms: C8_10  and  C9_11
REMARK    5  A    between atoms: C9_11  and  O4_13
REMARK                            x       y       z     vdW  Elec       q    Type
REMARK                         _______ _______ _______ _____ _____    ______ ____
ROOT
ATOM      1  C3  UNL     1      -0.030  -0.288  -0.082  0.00  0.00    +0.000 A 
ATOM      2  C4  UNL     1      -0.012  -1.688   0.071  0.00  0.00    +0.000 A 
ATOM      3  C5  UNL     1      -1.204  -2.407   0.165  0.00  0.00    +0.000 A 
ATOM      4  C6  UNL     1      -2.427  -1.744   0.098  0.00  0.00    +0.000 A 
ATOM      5  C7  UNL     1      -2.464  -0.359  -0.073  0.00  0.00    +0.000 A 
ATOM      6  C8  UNL     1      -1.274   0.387  -0.171  0.00  0.00    +0.000 A 
ENDROOT
BRANCH   6   7
ATOM      7  C9  UNL     1      -1.360   1.859  -0.353  0.00  0.00    +0.000 C 
ATOM      8  O3  UNL     1      -0.319   2.567  -0.422  0.00  0.00    +0.000 OA
BRANCH   7   9
ATOM      9  O4  UNL     1      -2.604   2.479  -0.451  0.00  0.00    +0.000 OA
ATOM     10  H8  UNL     1      -2.678   3.482  -0.575  0.00  0.00    +0.000 HD
ENDBRANCH   7   9
ENDBRANCH   6   7
BRANCH   1  11
ATOM     11  O2  UNL     1       1.167   0.439  -0.191  0.00  0.00    +0.000 OA
BRANCH  11  13
ATOM     12  C1  UNL     1       3.626   0.807   0.015  0.00  0.00    +0.000 C 
ATOM     13  C2  UNL     1       2.378   0.106   0.430  0.00  0.00    +0.000 C 
ATOM     14  O1  UNL     1       2.412  -0.703   1.396  0.00  0.00    +0.000 OA
ENDBRANCH  11  13
ENDBRANCH   1  11
TORSDOF 4
